ligand
     RDKit          3D

 62 66  0  0  0  0  0  0  0  0999 V2000
   24.8540    9.4020    7.6050 C   0  0  0  0  0  0  0  0  0  0  0  0
   25.5230   10.7550    7.4270 C   0  0  0  0  0  0  0  0  0  0  0  0
   27.0040   10.6430    7.3290 C   0  0  0  0  0  0  0  0  0  0  0  0
   27.8770   11.3450    6.5230 C   0  0  0  0  0  0  0  0  0  0  0  0
   29.1100   10.8640    6.8650 N   0  0  0  0  0  0  0  0  0  0  0  0
   30.5590   11.2100    6.0770 S   0  0  0  0  0  6  0  0  0  0  0  0
   31.4900   10.2090    6.5660 O   0  0  0  0  0  0  0  0  0  0  0  0
   30.2080   11.2810    4.6660 O   0  0  0  0  0  0  0  0  0  0  0  0
   31.0200   12.6790    6.6090 O   0  0  0  0  0  0  0  0  0  0  0  0
   30.9380   13.0560    7.9240 C   0  0  0  0  0  0  0  0  0  0  0  0
   31.3800   12.3090    9.0130 C   0  0  0  0  0  0  0  0  0  0  0  0
   31.2490   12.8200   10.3060 C   0  0  0  0  0  0  0  0  0  0  0  0
   30.6790   14.0760   10.5180 C   0  0  0  0  0  0  0  0  0  0  0  0
   30.2230   14.8360    9.4350 C   0  0  0  0  0  0  0  0  0  0  0  0
   29.6450   16.2200    9.6440 C   0  0  0  0  0  0  0  0  0  0  0  0
   28.1920   16.1450    9.8450 C   0  0  0  0  0  0  0  0  0  0  0  0
   27.0230   15.9300   10.0170 C   0  0  0  0  0  0  0  0  0  0  0  0
   25.6500   15.8150   10.3870 C   0  0  0  0  0  0  0  0  0  0  0  0
   24.7470   15.0310    9.6620 C   0  0  0  0  0  0  0  0  0  0  0  0
   23.3980   14.9390   10.0580 C   0  0  0  0  0  0  0  0  0  0  0  0
   22.9340   15.6280   11.1820 C   0  0  0  0  0  0  0  0  0  0  0  0
   23.8480   16.4000   11.8770 C   0  0  0  0  0  0  0  0  0  0  0  0
   25.1830   16.4990   11.4980 C   0  0  0  0  0  0  0  0  0  0  0  0
   25.9220   17.3900   12.4380 C   0  0  0  0  0  0  0  0  0  0  0  0
   24.8780   17.8080   13.3640 N   0  0  0  0  0  0  0  0  0  0  0  0
   25.1540   18.5120   14.6140 C   0  0  1  0  0  0  0  0  0  0  0  0
   26.2930   17.8260   15.3720 C   0  0  0  0  0  0  0  0  0  0  0  0
   26.5480   18.5440   16.6850 C   0  0  0  0  0  0  0  0  0  0  0  0
   26.8870   19.9940   16.4440 C   0  0  0  0  0  0  0  0  0  0  0  0
   27.6590   20.6150   17.1670 O   0  0  0  0  0  0  0  0  0  0  0  0
   26.2470   20.5960   15.3900 N   0  0  0  0  0  0  0  0  0  0  0  0
   25.4680   20.0080   14.4210 C   0  0  0  0  0  0  0  0  0  0  0  0
   25.0260   20.6850   13.4910 O   0  0  0  0  0  0  0  0  0  0  0  0
   23.6610   17.2050   13.0900 C   0  0  0  0  0  0  0  0  0  0  0  0
   22.6300   17.2770   13.7320 O   0  0  0  0  0  0  0  0  0  0  0  0
   30.3610   14.3120    8.1390 C   0  0  0  0  0  0  0  0  0  0  0  0
   28.9580    9.8580    7.7640 C   0  0  0  0  0  0  0  0  0  0  0  0
   27.6910    9.7220    8.0940 N   0  0  0  0  0  0  0  0  0  0  0  0
   24.7464    9.1845    8.6779 H   0  0  0  0  0  0  0  0  0  0  0  0
   23.8606    9.4192    7.1330 H   0  0  0  0  0  0  0  0  0  0  0  0
   25.4708    8.6230    7.1330 H   0  0  0  0  0  0  0  0  0  0  0  0
   25.1415   11.2201    6.5061 H   0  0  0  0  0  0  0  0  0  0  0  0
   25.2890   11.3657    8.3115 H   0  0  0  0  0  0  0  0  0  0  0  0
   27.6358   12.1156    5.7760 H   0  0  0  0  0  0  0  0  0  0  0  0
   31.8314   11.3184    8.8550 H   0  0  0  0  0  0  0  0  0  0  0  0
   31.5980   12.2275   11.1646 H   0  0  0  0  0  0  0  0  0  0  0  0
   30.5877   14.4704   11.5408 H   0  0  0  0  0  0  0  0  0  0  0  0
   30.1100   16.6766   10.5301 H   0  0  0  0  0  0  0  0  0  0  0  0
   29.8500   16.8299    8.7518 H   0  0  0  0  0  0  0  0  0  0  0  0
   25.0931   14.4811    8.7744 H   0  0  0  0  0  0  0  0  0  0  0  0
   22.7018   14.3176    9.4757 H   0  0  0  0  0  0  0  0  0  0  0  0
   21.8837   15.5592   11.5015 H   0  0  0  0  0  0  0  0  0  0  0  0
   26.7202   16.8421   12.9601 H   0  0  0  0  0  0  0  0  0  0  0  0
   26.4275   18.2301   11.9394 H   0  0  0  0  0  0  0  0  0  0  0  0
   24.2284   18.4622   15.2062 H   0  0  0  0  0  0  0  0  0  0  0  0
   26.0176   16.7807   15.5757 H   0  0  0  0  0  0  0  0  0  0  0  0
   27.2059   17.8581   14.7592 H   0  0  0  0  0  0  0  0  0  0  0  0
   25.6452   18.4836   17.3106 H   0  0  0  0  0  0  0  0  0  0  0  0
   27.3972   18.0623   17.1918 H   0  0  0  0  0  0  0  0  0  0  0  0
   26.3648   21.6165   15.3151 H   0  0  0  0  0  0  0  0  0  0  0  0
   30.0092   14.8996    7.2782 H   0  0  0  0  0  0  0  0  0  0  0  0
   29.7788    9.2427    8.1610 H   0  0  0  0  0  0  0  0  0  0  0  0
  1  2  1  0
  2  3  1  0
  3  4  2  0
  4  5  1  0
  5  6  1  0
  6  7  2  0
  6  8  2  0
  6  9  1  0
  9 10  1  0
 10 11  2  0
 11 12  1  0
 12 13  2  0
 13 14  1  0
 14 15  1  0
 15 16  1  0
 16 17  3  0
 17 18  1  0
 18 19  2  0
 19 20  1  0
 20 21  2  0
 21 22  1  0
 22 23  2  0
 23 24  1  0
 24 25  1  0
 25 26  1  0
 26 27  1  0
 27 28  1  0
 28 29  1  0
 29 30  2  0
 29 31  1  0
 31 32  1  0
 32 33  2  0
 25 34  1  0
 34 35  2  0
 14 36  2  0
  5 37  1  0
 37 38  2  0
 38  3  1  0
 36 10  1  0
 23 18  1  0
 32 26  1  0
 34 22  1  0
  1 39  1  0
  1 40  1  0
  1 41  1  0
  2 42  1  0
  2 43  1  0
  4 44  1  0
 11 45  1  0
 12 46  1  0
 13 47  1  0
 15 48  1  0
 15 49  1  0
 19 50  1  0
 20 51  1  0
 21 52  1  0
 24 53  1  0
 24 54  1  0
 26 55  1  1
 27 56  1  0
 27 57  1  0
 28 58  1  0
 28 59  1  0
 31 60  1  0
 36 61  1  0
 37 62  1  0
M  END
>  <meeko>  (1) 
{"is_sidechain": [true], "free_energy": -16.72, "intermolecular_energy": 0.0, "internal_energy": -16.72, "cluster_size": 18, "cluster_id": 1, "rank_in_cluster": 1}

>  <_RMSD_MCS_to_ref>  (1) 
0.3328638360250823

$$$$
ligand
     RDKit          3D

 63 67  0  0  0  0  0  0  0  0999 V2000
   24.8540    9.4020    7.6050 C   0  0  0  0  0  0  0  0  0  0  0  0
   25.5230   10.7550    7.4270 C   0  0  0  0  0  0  0  0  0  0  0  0
   27.0040   10.6670    7.5250 C   0  0  0  0  0  0  0  0  0  0  0  0
   27.9440   11.6730    7.4190 C   0  0  0  0  0  0  0  0  0  0  0  0
   29.1410   11.0410    7.6130 N   0  0  0  0  0  0  0  0  0  0  0  0
   30.6530   11.7360    7.3580 S   0  0  0  0  0  6  0  0  0  0  0  0
   30.4460   12.9780    6.6300 O   0  0  0  0  0  0  0  0  0  0  0  0
   31.4830   10.6800    6.8050 O   0  0  0  0  0  0  0  0  0  0  0  0
   31.2160   12.1270    9.0010 C   0  0  0  0  0  0  0  0  0  0  0  0
   32.1040   11.2330    9.6180 C   0  0  0  0  0  0  0  0  0  0  0  0
   32.5210   11.4670   10.9240 C   0  0  0  0  0  0  0  0  0  0  0  0
   32.0450   12.5810   11.6070 C   0  0  0  0  0  0  0  0  0  0  0  0
   31.1690   13.4760   10.9800 C   0  0  0  0  0  0  0  0  0  0  0  0
   30.7650   13.2970    9.6510 C   0  0  0  0  0  0  0  0  0  0  0  0
   29.8610   14.1540    9.0280 N   0  0  0  0  0  0  0  0  0  0  0  0
   29.5960   15.5160    9.4670 C   0  0  0  0  0  0  0  0  0  0  0  0
   28.1620   15.5840    9.7820 C   0  0  0  0  0  0  0  0  0  0  0  0
   26.9800   15.4840    9.9670 C   0  0  0  0  0  0  0  0  0  0  0  0
   25.5960   15.4860   10.3240 C   0  0  0  0  0  0  0  0  0  0  0  0
   24.6550   14.7350    9.6120 C   0  0  0  0  0  0  0  0  0  0  0  0
   23.2960   14.7430    9.9850 C   0  0  0  0  0  0  0  0  0  0  0  0
   22.8610   15.5000   11.0760 C   0  0  0  0  0  0  0  0  0  0  0  0
   23.8100   16.2360   11.7590 C   0  0  0  0  0  0  0  0  0  0  0  0
   25.1570   16.2390   11.4010 C   0  0  0  0  0  0  0  0  0  0  0  0
   25.9280   17.1200   12.3270 C   0  0  0  0  0  0  0  0  0  0  0  0
   24.8970   17.6290   13.2200 N   0  0  0  0  0  0  0  0  0  0  0  0
   25.1950   18.3610   14.4490 C   0  0  1  0  0  0  0  0  0  0  0  0
   26.3900   17.7330   15.1680 C   0  0  0  0  0  0  0  0  0  0  0  0
   26.6290   18.4440   16.4890 C   0  0  0  0  0  0  0  0  0  0  0  0
   26.8500   19.9210   16.2800 C   0  0  0  0  0  0  0  0  0  0  0  0
   27.5210   20.6000   17.0520 O   0  0  0  0  0  0  0  0  0  0  0  0
   26.2080   20.4900   15.2080 N   0  0  0  0  0  0  0  0  0  0  0  0
   25.4340   19.8700   14.2520 C   0  0  0  0  0  0  0  0  0  0  0  0
   24.9360   20.5360   13.3460 O   0  0  0  0  0  0  0  0  0  0  0  0
   23.6510   17.0920   12.9420 C   0  0  0  0  0  0  0  0  0  0  0  0
   22.6170   17.2420   13.5630 O   0  0  0  0  0  0  0  0  0  0  0  0
   28.9150    9.7120    7.7710 C   0  0  0  0  0  0  0  0  0  0  0  0
   27.6230    9.4500    7.7310 N   0  0  0  0  0  0  0  0  0  0  0  0
   24.7464    9.1845    8.6779 H   0  0  0  0  0  0  0  0  0  0  0  0
   23.8606    9.4192    7.1330 H   0  0  0  0  0  0  0  0  0  0  0  0
   25.4708    8.6230    7.1330 H   0  0  0  0  0  0  0  0  0  0  0  0
   25.2567   11.1543    6.4372 H   0  0  0  0  0  0  0  0  0  0  0  0
   25.1700   11.4147    8.2333 H   0  0  0  0  0  0  0  0  0  0  0  0
   27.7694   12.7412    7.2229 H   0  0  0  0  0  0  0  0  0  0  0  0
   32.4688   10.3510    9.0712 H   0  0  0  0  0  0  0  0  0  0  0  0
   33.2226   10.7755   11.4135 H   0  0  0  0  0  0  0  0  0  0  0  0
   32.3584   12.7603   12.6460 H   0  0  0  0  0  0  0  0  0  0  0  0
   30.7892   14.3401   11.5448 H   0  0  0  0  0  0  0  0  0  0  0  0
   29.3488   13.8024    8.2065 H   0  0  0  0  0  0  0  0  0  0  0  0
   30.1925   15.7494   10.3612 H   0  0  0  0  0  0  0  0  0  0  0  0
   29.8659   16.2437    8.6875 H   0  0  0  0  0  0  0  0  0  0  0  0
   24.9793   14.1315    8.7514 H   0  0  0  0  0  0  0  0  0  0  0  0
   22.5704   14.1474    9.4116 H   0  0  0  0  0  0  0  0  0  0  0  0
   21.8037   15.5096   11.3794 H   0  0  0  0  0  0  0  0  0  0  0  0
   26.6848   16.5460   12.8818 H   0  0  0  0  0  0  0  0  0  0  0  0
   26.4867   17.9136   11.8092 H   0  0  0  0  0  0  0  0  0  0  0  0
   24.2885   18.2768   15.0664 H   0  0  0  0  0  0  0  0  0  0  0  0
   26.1838   16.6694   15.3581 H   0  0  0  0  0  0  0  0  0  0  0  0
   27.2854   17.8304   14.5365 H   0  0  0  0  0  0  0  0  0  0  0  0
   25.7523   18.3004   17.1377 H   0  0  0  0  0  0  0  0  0  0  0  0
   27.5299   18.0192   16.9557 H   0  0  0  0  0  0  0  0  0  0  0  0
   26.3191   21.5089   15.1058 H   0  0  0  0  0  0  0  0  0  0  0  0
   29.7019    8.9566    7.9130 H   0  0  0  0  0  0  0  0  0  0  0  0
  1  2  1  0
  2  3  1  0
  3  4  2  0
  4  5  1  0
  5  6  1  0
  6  7  2  0
  6  8  2  0
  6  9  1  0
  9 10  2  0
 10 11  1  0
 11 12  2  0
 12 13  1  0
 13 14  2  0
 14 15  1  0
 15 16  1  0
 16 17  1  0
 17 18  3  0
 18 19  1  0
 19 20  2  0
 20 21  1  0
 21 22  2  0
 22 23  1  0
 23 24  2  0
 24 25  1  0
 25 26  1  0
 26 27  1  0
 27 28  1  0
 28 29  1  0
 29 30  1  0
 30 31  2  0
 30 32  1  0
 32 33  1  0
 33 34  2  0
 26 35  1  0
 35 36  2  0
  5 37  1  0
 37 38  2  0
 38  3  1  0
 14  9  1  0
 24 19  1  0
 33 27  1  0
 35 23  1  0
  1 39  1  0
  1 40  1  0
  1 41  1  0
  2 42  1  0
  2 43  1  0
  4 44  1  0
 10 45  1  0
 11 46  1  0
 12 47  1  0
 13 48  1  0
 15 49  1  0
 16 50  1  0
 16 51  1  0
 20 52  1  0
 21 53  1  0
 22 54  1  0
 25 55  1  0
 25 56  1  0
 27 57  1  1
 28 58  1  0
 28 59  1  0
 29 60  1  0
 29 61  1  0
 32 62  1  0
 37 63  1  0
M  END
>  <meeko>  (2) 
{"is_sidechain": [true], "free_energy": -16.39, "intermolecular_energy": 0.0, "internal_energy": -16.39, "cluster_size": 19, "cluster_id": 1, "rank_in_cluster": 1}

>  <_RMSD_MCS_to_ref>  (2) 
0.4055740787246311

$$$$
ligand
     RDKit          3D

 60 65  0  0  0  0  0  0  0  0999 V2000
   24.8540    9.4020    7.6050 C   0  0  0  0  0  0  0  0  0  0  0  0
   25.5230   10.7550    7.4270 C   0  0  0  0  0  0  0  0  0  0  0  0
   27.0050   10.6450    7.3440 C   0  0  0  0  0  0  0  0  0  0  0  0
   27.9640   11.1510    8.2010 C   0  0  0  0  0  0  0  0  0  0  0  0
   29.1470   10.7320    7.6630 N   0  0  0  0  0  0  0  0  0  0  0  0
   30.6810   11.2300    8.1520 S   0  0  0  0  0  6  0  0  0  0  0  0
   31.3720    9.9990    8.4940 O   0  0  0  0  0  0  0  0  0  0  0  0
   31.1500   12.0810    7.0740 O   0  0  0  0  0  0  0  0  0  0  0  0
   30.4540   12.1210    9.4830 O   0  0  0  0  0  0  0  0  0  0  0  0
   30.4040   13.4600    9.4670 C   0  0  0  0  0  0  0  0  0  0  0  0
   31.5720   14.0380    9.1830 N   0  0  0  0  0  0  0  0  0  0  0  0
   31.2850   15.3480    9.2000 N   0  0  0  0  0  0  0  0  0  0  0  0
   29.9750   15.6290    9.4860 C   0  0  0  0  0  0  0  0  0  0  0  0
   29.3000   16.8490    9.5840 C   0  0  0  0  0  0  0  0  0  0  0  0
   27.9370   16.8030    9.8940 C   0  0  0  0  0  0  0  0  0  0  0  0
   27.2670   15.5920   10.1110 C   0  0  0  0  0  0  0  0  0  0  0  0
   25.8320   15.5760   10.4230 C   0  0  0  0  0  0  0  0  0  0  0  0
   24.9270   14.8280    9.6410 C   0  0  0  0  0  0  0  0  0  0  0  0
   23.5490   14.7880    9.9330 C   0  0  0  0  0  0  0  0  0  0  0  0
   23.0350   15.4940   11.0190 C   0  0  0  0  0  0  0  0  0  0  0  0
   23.9290   16.2250   11.7760 C   0  0  0  0  0  0  0  0  0  0  0  0
   25.2970   16.2800   11.4990 C   0  0  0  0  0  0  0  0  0  0  0  0
   25.9790   17.1230   12.5280 C   0  0  0  0  0  0  0  0  0  0  0  0
   24.8700   17.6230   13.3280 N   0  0  0  0  0  0  0  0  0  0  0  0
   25.1020   18.3370   14.5770 C   0  0  1  0  0  0  0  0  0  0  0  0
   26.1770   17.7010   15.4580 C   0  0  0  0  0  0  0  0  0  0  0  0
   26.2930   18.4850   16.7560 C   0  0  0  0  0  0  0  0  0  0  0  0
   26.5910   19.9430   16.4910 C   0  0  0  0  0  0  0  0  0  0  0  0
   27.1270   20.6640   17.3290 O   0  0  0  0  0  0  0  0  0  0  0  0
   26.1600   20.4530   15.2930 N   0  0  0  0  0  0  0  0  0  0  0  0
   25.4220   19.8170   14.3190 C   0  0  0  0  0  0  0  0  0  0  0  0
   24.9750   20.4550   13.3670 O   0  0  0  0  0  0  0  0  0  0  0  0
   23.6670   17.0370   12.9690 C   0  0  0  0  0  0  0  0  0  0  0  0
   22.5860   17.1340   13.5160 O   0  0  0  0  0  0  0  0  0  0  0  0
   27.9890   14.3850   10.0210 C   0  0  0  0  0  0  0  0  0  0  0  0
   29.3590   14.3960    9.6860 C   0  0  0  0  0  0  0  0  0  0  0  0
   28.9000   10.0820    6.4970 C   0  0  0  0  0  0  0  0  0  0  0  0
   27.6040    9.9850    6.2900 N   0  0  0  0  0  0  0  0  0  0  0  0
   24.7464    9.1845    8.6779 H   0  0  0  0  0  0  0  0  0  0  0  0
   23.8606    9.4192    7.1330 H   0  0  0  0  0  0  0  0  0  0  0  0
   25.4708    8.6230    7.1330 H   0  0  0  0  0  0  0  0  0  0  0  0
   25.1498   11.2151    6.5001 H   0  0  0  0  0  0  0  0  0  0  0  0
   25.2796   11.3694    8.3063 H   0  0  0  0  0  0  0  0  0  0  0  0
   27.8096   11.7532    9.1085 H   0  0  0  0  0  0  0  0  0  0  0  0
   31.9874   16.0782    9.0144 H   0  0  0  0  0  0  0  0  0  0  0  0
   29.8192   17.8055    9.4240 H   0  0  0  0  0  0  0  0  0  0  0  0
   27.3746   17.7453    9.9696 H   0  0  0  0  0  0  0  0  0  0  0  0
   25.3076   14.2601    8.7792 H   0  0  0  0  0  0  0  0  0  0  0  0
   22.8738   14.1949    9.2988 H   0  0  0  0  0  0  0  0  0  0  0  0
   21.9626   15.4700   11.2628 H   0  0  0  0  0  0  0  0  0  0  0  0
   26.6677   16.5212   13.1391 H   0  0  0  0  0  0  0  0  0  0  0  0
   26.5960   17.9234   12.0936 H   0  0  0  0  0  0  0  0  0  0  0  0
   24.1592   18.2650   15.1392 H   0  0  0  0  0  0  0  0  0  0  0  0
   25.9004   16.6600   15.6812 H   0  0  0  0  0  0  0  0  0  0  0  0
   27.1422   17.7172   14.9306 H   0  0  0  0  0  0  0  0  0  0  0  0
   25.3445   18.4074   17.3077 H   0  0  0  0  0  0  0  0  0  0  0  0
   27.1206   18.0624   17.3446 H   0  0  0  0  0  0  0  0  0  0  0  0
   26.4197   21.4304   15.0978 H   0  0  0  0  0  0  0  0  0  0  0  0
   27.4809   13.4285   10.2132 H   0  0  0  0  0  0  0  0  0  0  0  0
   29.6743    9.6913    5.8204 H   0  0  0  0  0  0  0  0  0  0  0  0
  1  2  1  0
  2  3  1  0
  3  4  2  0
  4  5  1  0
  5  6  1  0
  6  7  2  0
  6  8  2  0
  6  9  1  0
  9 10  1  0
 10 11  2  0
 11 12  1  0
 12 13  1  0
 13 14  2  0
 14 15  1  0
 15 16  2  0
 16 17  1  0
 17 18  2  0
 18 19  1  0
 19 20  2  0
 20 21  1  0
 21 22  2  0
 22 23  1  0
 23 24  1  0
 24 25  1  0
 25 26  1  0
 26 27  1  0
 27 28  1  0
 28 29  2  0
 28 30  1  0
 30 31  1  0
 31 32  2  0
 24 33  1  0
 33 34  2  0
 16 35  1  0
 35 36  2  0
  5 37  1  0
 37 38  2  0
 38  3  1  0
 36 10  1  0
 36 13  1  0
 22 17  1  0
 31 25  1  0
 33 21  1  0
  1 39  1  0
  1 40  1  0
  1 41  1  0
  2 42  1  0
  2 43  1  0
  4 44  1  0
 12 45  1  0
 14 46  1  0
 15 47  1  0
 18 48  1  0
 19 49  1  0
 20 50  1  0
 23 51  1  0
 23 52  1  0
 25 53  1  1
 26 54  1  0
 26 55  1  0
 27 56  1  0
 27 57  1  0
 30 58  1  0
 35 59  1  0
 37 60  1  0
M  END
>  <meeko>  (3) 
{"is_sidechain": [true], "free_energy": -16.38, "intermolecular_energy": 0.0, "internal_energy": -16.38, "cluster_size": 18, "cluster_id": 1, "rank_in_cluster": 1}

>  <_RMSD_MCS_to_ref>  (3) 
0.3570704879058658

$$$$
ligand
     RDKit          3D

 59 64  0  0  0  0  0  0  0  0999 V2000
   24.8540    9.4020    7.6050 C   0  0  0  0  0  0  0  0  0  0  0  0
   25.5230   10.7550    7.4270 C   0  0  0  0  0  0  0  0  0  0  0  0
   27.0080   10.6580    7.4760 C   0  0  0  0  0  0  0  0  0  0  0  0
   27.9350   11.6470    7.7450 C   0  0  0  0  0  0  0  0  0  0  0  0
   29.1400   11.0160    7.6230 N   0  0  0  0  0  0  0  0  0  0  0  0
   30.6360   11.6610    8.0500 S   0  0  0  0  0  6  0  0  0  0  0  0
   30.9570   12.5880    6.9790 O   0  0  0  0  0  0  0  0  0  0  0  0
   31.4730   10.5060    8.3220 O   0  0  0  0  0  0  0  0  0  0  0  0
   30.3950   12.4860    9.4200 O   0  0  0  0  0  0  0  0  0  0  0  0
   30.2650   13.8200    9.4560 C   0  0  0  0  0  0  0  0  0  0  0  0
   31.3920   14.4770    9.1640 N   0  0  0  0  0  0  0  0  0  0  0  0
   31.0280   15.7700    9.2620 N   0  0  0  0  0  0  0  0  0  0  0  0
   29.7180   15.9480    9.5990 C   0  0  0  0  0  0  0  0  0  0  0  0
   29.1050   17.1340    9.7570 N   0  0  0  0  0  0  0  0  0  0  0  0
   27.8000   17.0070   10.1030 C   0  0  0  0  0  0  0  0  0  0  0  0
   27.1040   15.8080   10.2780 C   0  0  0  0  0  0  0  0  0  0  0  0
   25.6870   15.7950   10.6410 C   0  0  0  0  0  0  0  0  0  0  0  0
   24.7520   15.0610    9.8830 C   0  0  0  0  0  0  0  0  0  0  0  0
   23.3850   15.0280   10.2210 C   0  0  0  0  0  0  0  0  0  0  0  0
   22.9120   15.7320   11.3270 C   0  0  0  0  0  0  0  0  0  0  0  0
   23.8350   16.4570   12.0550 C   0  0  0  0  0  0  0  0  0  0  0  0
   25.1940   16.5000   11.7350 C   0  0  0  0  0  0  0  0  0  0  0  0
   25.9090   17.3650   12.7210 C   0  0  0  0  0  0  0  0  0  0  0  0
   24.8300   17.8780   13.5520 N   0  0  0  0  0  0  0  0  0  0  0  0
   25.1060   18.5910   14.7950 C   0  0  1  0  0  0  0  0  0  0  0  0
   26.1640   17.9190   15.6690 C   0  0  0  0  0  0  0  0  0  0  0  0
   26.3270   18.7070   16.9590 C   0  0  0  0  0  0  0  0  0  0  0  0
   26.6820   20.1490   16.6780 C   0  0  0  0  0  0  0  0  0  0  0  0
   27.2570   20.8540   17.5030 O   0  0  0  0  0  0  0  0  0  0  0  0
   26.2540   20.6680   15.4830 N   0  0  0  0  0  0  0  0  0  0  0  0
   25.4830   20.0560   14.5220 C   0  0  0  0  0  0  0  0  0  0  0  0
   25.0490   20.7010   13.5680 O   0  0  0  0  0  0  0  0  0  0  0  0
   23.6150   17.2840   13.2460 C   0  0  0  0  0  0  0  0  0  0  0  0
   22.5550   17.3830   13.8310 O   0  0  0  0  0  0  0  0  0  0  0  0
   27.8140   14.6080   10.0960 C   0  0  0  0  0  0  0  0  0  0  0  0
   29.1730   14.6790    9.7420 C   0  0  0  0  0  0  0  0  0  0  0  0
   28.9300    9.6970    7.3800 C   0  0  0  0  0  0  0  0  0  0  0  0
   27.6420    9.4510    7.2550 N   0  0  0  0  0  0  0  0  0  0  0  0
   24.7464    9.1845    8.6779 H   0  0  0  0  0  0  0  0  0  0  0  0
   23.8606    9.4192    7.1330 H   0  0  0  0  0  0  0  0  0  0  0  0
   25.4708    8.6230    7.1330 H   0  0  0  0  0  0  0  0  0  0  0  0
   25.2270   11.1713    6.4528 H   0  0  0  0  0  0  0  0  0  0  0  0
   25.1991   11.4037    8.2542 H   0  0  0  0  0  0  0  0  0  0  0  0
   27.7458   12.7004    7.9990 H   0  0  0  0  0  0  0  0  0  0  0  0
   31.6782   16.5518    9.0978 H   0  0  0  0  0  0  0  0  0  0  0  0
   27.2349   17.9374   10.2611 H   0  0  0  0  0  0  0  0  0  0  0  0
   25.0995   14.4988    9.0037 H   0  0  0  0  0  0  0  0  0  0  0  0
   22.6852   14.4419    9.6072 H   0  0  0  0  0  0  0  0  0  0  0  0
   21.8487   15.7111   11.6081 H   0  0  0  0  0  0  0  0  0  0  0  0
   26.6221   16.7775   13.3178 H   0  0  0  0  0  0  0  0  0  0  0  0
   26.5056   18.1588   12.2477 H   0  0  0  0  0  0  0  0  0  0  0  0
   24.1677   18.5601   15.3683 H   0  0  0  0  0  0  0  0  0  0  0  0
   25.8480   16.8918   15.9037 H   0  0  0  0  0  0  0  0  0  0  0  0
   27.1229   17.8923   15.1307 H   0  0  0  0  0  0  0  0  0  0  0  0
   25.3825   18.6732   17.5218 H   0  0  0  0  0  0  0  0  0  0  0  0
   27.1427   18.2550   17.5423 H   0  0  0  0  0  0  0  0  0  0  0  0
   26.5456   21.6348   15.2800 H   0  0  0  0  0  0  0  0  0  0  0  0
   27.3174   13.6354   10.2276 H   0  0  0  0  0  0  0  0  0  0  0  0
   29.7239    8.9400    7.2989 H   0  0  0  0  0  0  0  0  0  0  0  0
  1  2  1  0
  2  3  1  0
  3  4  2  0
  4  5  1  0
  5  6  1  0
  6  7  2  0
  6  8  2  0
  6  9  1  0
  9 10  1  0
 10 11  2  0
 11 12  1  0
 12 13  1  0
 13 14  2  0
 14 15  1  0
 15 16  2  0
 16 17  1  0
 17 18  2  0
 18 19  1  0
 19 20  2  0
 20 21  1  0
 21 22  2  0
 22 23  1  0
 23 24  1  0
 24 25  1  0
 25 26  1  0
 26 27  1  0
 27 28  1  0
 28 29  2  0
 28 30  1  0
 30 31  1  0
 31 32  2  0
 24 33  1  0
 33 34  2  0
 16 35  1  0
 35 36  2  0
  5 37  1  0
 37 38  2  0
 38  3  1  0
 36 10  1  0
 36 13  1  0
 22 17  1  0
 31 25  1  0
 33 21  1  0
  1 39  1  0
  1 40  1  0
  1 41  1  0
  2 42  1  0
  2 43  1  0
  4 44  1  0
 12 45  1  0
 15 46  1  0
 18 47  1  0
 19 48  1  0
 20 49  1  0
 23 50  1  0
 23 51  1  0
 25 52  1  1
 26 53  1  0
 26 54  1  0
 27 55  1  0
 27 56  1  0
 30 57  1  0
 35 58  1  0
 37 59  1  0
M  END
>  <meeko>  (4) 
{"is_sidechain": [true], "free_energy": -16.34, "intermolecular_energy": 0.0, "internal_energy": -16.34, "cluster_size": 19, "cluster_id": 1, "rank_in_cluster": 1}

>  <_RMSD_MCS_to_ref>  (4) 
0.41315816180570186

$$$$
ligand
     RDKit          3D

 62 66  0  0  0  0  0  0  0  0999 V2000
   24.8540    9.4020    7.6050 C   0  0  0  0  0  0  0  0  0  0  0  0
   25.5230   10.7550    7.4270 C   0  0  0  0  0  0  0  0  0  0  0  0
   26.9820   10.6280    7.1600 C   0  0  0  0  0  0  0  0  0  0  0  0
   27.7340   11.2170    6.1640 C   0  0  0  0  0  0  0  0  0  0  0  0
   28.9990   10.7450    6.3760 N   0  0  0  0  0  0  0  0  0  0  0  0
   30.2950   10.8650    5.3000 S   0  0  0  0  0  6  0  0  0  0  0  0
   29.7320   10.4750    4.0190 O   0  0  0  0  0  0  0  0  0  0  0  0
   31.3680   10.1000    5.9090 O   0  0  0  0  0  0  0  0  0  0  0  0
   30.7270   12.4430    5.2030 O   0  0  0  0  0  0  0  0  0  0  0  0
   30.4840   13.2620    6.2720 C   0  0  0  0  0  0  0  0  0  0  0  0
   31.3830   13.3460    7.3320 C   0  0  0  0  0  0  0  0  0  0  0  0
   31.0970   14.1830    8.4120 C   0  0  0  0  0  0  0  0  0  0  0  0
   29.9180   14.9450    8.4310 C   0  0  0  0  0  0  0  0  0  0  0  0
   29.6240   15.8700    9.5890 C   0  0  0  0  0  0  0  0  0  0  0  0
   28.2010   15.8360    9.9520 C   0  0  0  0  0  0  0  0  0  0  0  0
   27.0300   15.7890   10.2120 C   0  0  0  0  0  0  0  0  0  0  0  0
   25.6490   15.7680   10.5740 C   0  0  0  0  0  0  0  0  0  0  0  0
   24.7200   15.0390    9.8190 C   0  0  0  0  0  0  0  0  0  0  0  0
   23.3600   15.0080   10.1810 C   0  0  0  0  0  0  0  0  0  0  0  0
   22.9080   15.7060   11.3020 C   0  0  0  0  0  0  0  0  0  0  0  0
   23.8450   16.4200   12.0250 C   0  0  0  0  0  0  0  0  0  0  0  0
   25.1940   16.4610   11.6820 C   0  0  0  0  0  0  0  0  0  0  0  0
   25.9440   17.2900   12.6690 C   0  0  0  0  0  0  0  0  0  0  0  0
   24.8850   17.8020   13.5300 N   0  0  0  0  0  0  0  0  0  0  0  0
   25.1930   18.4960   14.7750 C   0  0  1  0  0  0  0  0  0  0  0  0
   26.2860   17.8230   15.6010 C   0  0  0  0  0  0  0  0  0  0  0  0
   26.4820   18.5900   16.8990 C   0  0  0  0  0  0  0  0  0  0  0  0
   26.8110   20.0410   16.6340 C   0  0  0  0  0  0  0  0  0  0  0  0
   27.4080   20.7360   17.4520 O   0  0  0  0  0  0  0  0  0  0  0  0
   26.3370   20.5760   15.4630 N   0  0  0  0  0  0  0  0  0  0  0  0
   25.5400   19.9710   14.5170 C   0  0  0  0  0  0  0  0  0  0  0  0
   25.0670   20.6300   13.5930 O   0  0  0  0  0  0  0  0  0  0  0  0
   23.6580   17.2280   13.2340 C   0  0  0  0  0  0  0  0  0  0  0  0
   22.6090   17.3330   13.8390 O   0  0  0  0  0  0  0  0  0  0  0  0
   29.0440   14.8760    7.3360 C   0  0  0  0  0  0  0  0  0  0  0  0
   29.3290   14.0410    6.2550 C   0  0  0  0  0  0  0  0  0  0  0  0
   28.9820    9.8860    7.4280 C   0  0  0  0  0  0  0  0  0  0  0  0
   27.7710    9.8030    7.9380 N   0  0  0  0  0  0  0  0  0  0  0  0
   24.7464    9.1845    8.6779 H   0  0  0  0  0  0  0  0  0  0  0  0
   23.8606    9.4192    7.1330 H   0  0  0  0  0  0  0  0  0  0  0  0
   25.4708    8.6230    7.1330 H   0  0  0  0  0  0  0  0  0  0  0  0
   25.0515   11.2751    6.5801 H   0  0  0  0  0  0  0  0  0  0  0  0
   25.3980   11.3202    8.3624 H   0  0  0  0  0  0  0  0  0  0  0  0
   27.3933   11.9082    5.3791 H   0  0  0  0  0  0  0  0  0  0  0  0
   32.3119   12.7570    7.3185 H   0  0  0  0  0  0  0  0  0  0  0  0
   31.8010   14.2460    9.2549 H   0  0  0  0  0  0  0  0  0  0  0  0
   30.2228   15.5582   10.4575 H   0  0  0  0  0  0  0  0  0  0  0  0
   29.8806   16.8962    9.2872 H   0  0  0  0  0  0  0  0  0  0  0  0
   25.0582   14.4837    8.9317 H   0  0  0  0  0  0  0  0  0  0  0  0
   22.6475   14.4288    9.5753 H   0  0  0  0  0  0  0  0  0  0  0  0
   21.8488   15.6886   11.5981 H   0  0  0  0  0  0  0  0  0  0  0  0
   26.6577   16.6778   13.2398 H   0  0  0  0  0  0  0  0  0  0  0  0
   26.5483   18.0823   12.2030 H   0  0  0  0  0  0  0  0  0  0  0  0
   24.2750   18.4422   15.3787 H   0  0  0  0  0  0  0  0  0  0  0  0
   25.9903   16.7880   15.8273 H   0  0  0  0  0  0  0  0  0  0  0  0
   27.2269   17.8181   15.0312 H   0  0  0  0  0  0  0  0  0  0  0  0
   25.5568   18.5346   17.4914 H   0  0  0  0  0  0  0  0  0  0  0  0
   27.3219   18.1376   17.4467 H   0  0  0  0  0  0  0  0  0  0  0  0
   26.6108   21.5495   15.2675 H   0  0  0  0  0  0  0  0  0  0  0  0
   28.1276   15.4844    7.3295 H   0  0  0  0  0  0  0  0  0  0  0  0
   28.6456   13.9980    5.3942 H   0  0  0  0  0  0  0  0  0  0  0  0
   29.8582    9.3361    7.8019 H   0  0  0  0  0  0  0  0  0  0  0  0
  1  2  1  0
  2  3  1  0
  3  4  2  0
  4  5  1  0
  5  6  1  0
  6  7  2  0
  6  8  2  0
  6  9  1  0
  9 10  1  0
 10 11  2  0
 11 12  1  0
 12 13  2  0
 13 14  1  0
 14 15  1  0
 15 16  3  0
 16 17  1  0
 17 18  2  0
 18 19  1  0
 19 20  2  0
 20 21  1  0
 21 22  2  0
 22 23  1  0
 23 24  1  0
 24 25  1  0
 25 26  1  0
 26 27  1  0
 27 28  1  0
 28 29  2  0
 28 30  1  0
 30 31  1  0
 31 32  2  0
 24 33  1  0
 33 34  2  0
 13 35  1  0
 35 36  2  0
  5 37  1  0
 37 38  2  0
 38  3  1  0
 36 10  1  0
 22 17  1  0
 31 25  1  0
 33 21  1  0
  1 39  1  0
  1 40  1  0
  1 41  1  0
  2 42  1  0
  2 43  1  0
  4 44  1  0
 11 45  1  0
 12 46  1  0
 14 47  1  0
 14 48  1  0
 18 49  1  0
 19 50  1  0
 20 51  1  0
 23 52  1  0
 23 53  1  0
 25 54  1  1
 26 55  1  0
 26 56  1  0
 27 57  1  0
 27 58  1  0
 30 59  1  0
 35 60  1  0
 36 61  1  0
 37 62  1  0
M  END
>  <meeko>  (5) 
{"is_sidechain": [true], "free_energy": -16.26, "intermolecular_energy": 0.0, "internal_energy": -16.26, "cluster_size": 20, "cluster_id": 1, "rank_in_cluster": 1}

>  <_RMSD_MCS_to_ref>  (5) 
0.37335610049626533

$$$$
ligand
     RDKit          3D

 61 66  0  0  0  0  0  0  0  0999 V2000
   24.8540    9.4020    7.6050 C   0  0  0  0  0  0  0  0  0  0  0  0
   25.5230   10.7550    7.4270 C   0  0  0  0  0  0  0  0  0  0  0  0
   27.0080   10.6550    7.4510 C   0  0  0  0  0  0  0  0  0  0  0  0
   27.9490   11.6150    7.1330 C   0  0  0  0  0  0  0  0  0  0  0  0
   29.1460   10.9770    7.2940 N   0  0  0  0  0  0  0  0  0  0  0  0
   30.6640   11.7100    7.2770 S   0  0  0  0  0  6  0  0  0  0  0  0
   31.6020   10.6110    7.4090 O   0  0  0  0  0  0  0  0  0  0  0  0
   30.6480   12.5560    6.0960 O   0  0  0  0  0  0  0  0  0  0  0  0
   30.7240   12.6420    8.6120 O   0  0  0  0  0  0  0  0  0  0  0  0
   29.7040   13.4890    8.9710 C   0  0  0  0  0  0  0  0  0  0  0  0
   28.5640   12.8490    9.4620 C   0  0  0  0  0  0  0  0  0  0  0  0
   27.4420   13.5810    9.8670 C   0  0  0  0  0  0  0  0  0  0  0  0
   27.4660   14.9870    9.7800 C   0  0  0  0  0  0  0  0  0  0  0  0
   26.5360   16.0240   10.0970 C   0  0  0  0  0  0  0  0  0  0  0  0
   25.2100   15.9360   10.6660 C   0  0  0  0  0  0  0  0  0  0  0  0
   24.2150   15.1640   10.0420 C   0  0  0  0  0  0  0  0  0  0  0  0
   22.9240   15.0570   10.5950 C   0  0  0  0  0  0  0  0  0  0  0  0
   22.6030   15.7220   11.7780 C   0  0  0  0  0  0  0  0  0  0  0  0
   23.5960   16.4830   12.3670 C   0  0  0  0  0  0  0  0  0  0  0  0
   24.8800   16.5990   11.8380 C   0  0  0  0  0  0  0  0  0  0  0  0
   25.7070   17.4810   12.7130 C   0  0  0  0  0  0  0  0  0  0  0  0
   24.7520   17.9270   13.7210 N   0  0  0  0  0  0  0  0  0  0  0  0
   25.1960   18.6260   14.9210 C   0  0  1  0  0  0  0  0  0  0  0  0
   26.3160   17.9080   15.6740 C   0  0  0  0  0  0  0  0  0  0  0  0
   26.6550   18.6860   16.9340 C   0  0  0  0  0  0  0  0  0  0  0  0
   27.0390   20.1120   16.6110 C   0  0  0  0  0  0  0  0  0  0  0  0
   27.7350   20.7890   17.3620 O   0  0  0  0  0  0  0  0  0  0  0  0
   26.5030   20.6510   15.4680 N   0  0  0  0  0  0  0  0  0  0  0  0
   25.6030   20.0740   14.6020 C   0  0  0  0  0  0  0  0  0  0  0  0
   25.0960   20.7390   13.6990 O   0  0  0  0  0  0  0  0  0  0  0  0
   23.5330   17.2780   13.5980 C   0  0  0  0  0  0  0  0  0  0  0  0
   22.5770   17.3160   14.3490 O   0  0  0  0  0  0  0  0  0  0  0  0
   27.1290   17.2250    9.7690 C   0  0  0  0  0  0  0  0  0  0  0  0
   28.3790   16.9580    9.2760 N   0  0  0  0  0  0  0  0  0  0  0  0
   28.6120   15.6010    9.2760 C   0  0  0  0  0  0  0  0  0  0  0  0
   29.7460   14.8830    8.8650 C   0  0  0  0  0  0  0  0  0  0  0  0
   28.9220    9.7250    7.7710 C   0  0  0  0  0  0  0  0  0  0  0  0
   27.6280    9.4880    7.8510 N   0  0  0  0  0  0  0  0  0  0  0  0
   24.7464    9.1845    8.6779 H   0  0  0  0  0  0  0  0  0  0  0  0
   23.8606    9.4192    7.1330 H   0  0  0  0  0  0  0  0  0  0  0  0
   25.4708    8.6230    7.1330 H   0  0  0  0  0  0  0  0  0  0  0  0
   25.2120   11.1797    6.4611 H   0  0  0  0  0  0  0  0  0  0  0  0
   25.2140   11.3975    8.2647 H   0  0  0  0  0  0  0  0  0  0  0  0
   27.7743   12.6554    6.8214 H   0  0  0  0  0  0  0  0  0  0  0  0
   28.5476   11.7513    9.5316 H   0  0  0  0  0  0  0  0  0  0  0  0
   26.5499   13.0635   10.2496 H   0  0  0  0  0  0  0  0  0  0  0  0
   24.4483   14.6347    9.1064 H   0  0  0  0  0  0  0  0  0  0  0  0
   22.1630   14.4441   10.0898 H   0  0  0  0  0  0  0  0  0  0  0  0
   21.6007   15.6443   12.2244 H   0  0  0  0  0  0  0  0  0  0  0  0
   26.5341   16.9197   13.1722 H   0  0  0  0  0  0  0  0  0  0  0  0
   26.1832   18.3098   12.1687 H   0  0  0  0  0  0  0  0  0  0  0  0
   24.3272   18.6352   15.5956 H   0  0  0  0  0  0  0  0  0  0  0  0
   25.9848   16.8949   15.9460 H   0  0  0  0  0  0  0  0  0  0  0  0
   27.2068   17.8412   15.0321 H   0  0  0  0  0  0  0  0  0  0  0  0
   25.7782   18.6925   17.5982 H   0  0  0  0  0  0  0  0  0  0  0  0
   27.5103   18.1981   17.4243 H   0  0  0  0  0  0  0  0  0  0  0  0
   26.8125   21.6040   15.2295 H   0  0  0  0  0  0  0  0  0  0  0  0
   26.6779   18.2217    9.8831 H   0  0  0  0  0  0  0  0  0  0  0  0
   29.0486   17.6704    8.9518 H   0  0  0  0  0  0  0  0  0  0  0  0
   30.6356   15.3981    8.4736 H   0  0  0  0  0  0  0  0  0  0  0  0
   29.7095    9.0099    8.0510 H   0  0  0  0  0  0  0  0  0  0  0  0
  1  2  1  0
  2  3  1  0
  3  4  2  0
  4  5  1  0
  5  6  1  0
  6  7  2  0
  6  8  2  0
  6  9  1  0
  9 10  1  0
 10 11  2  0
 11 12  1  0
 12 13  2  0
 13 14  1  0
 14 15  1  0
 15 16  2  0
 16 17  1  0
 17 18  2  0
 18 19  1  0
 19 20  2  0
 20 21  1  0
 21 22  1  0
 22 23  1  0
 23 24  1  0
 24 25  1  0
 25 26  1  0
 26 27  2  0
 26 28  1  0
 28 29  1  0
 29 30  2  0
 22 31  1  0
 31 32  2  0
 14 33  2  0
 33 34  1  0
 34 35  1  0
 35 36  2  0
  5 37  1  0
 37 38  2  0
 38  3  1  0
 36 10  1  0
 35 13  1  0
 20 15  1  0
 29 23  1  0
 31 19  1  0
  1 39  1  0
  1 40  1  0
  1 41  1  0
  2 42  1  0
  2 43  1  0
  4 44  1  0
 11 45  1  0
 12 46  1  0
 16 47  1  0
 17 48  1  0
 18 49  1  0
 21 50  1  0
 21 51  1  0
 23 52  1  1
 24 53  1  0
 24 54  1  0
 25 55  1  0
 25 56  1  0
 28 57  1  0
 33 58  1  0
 34 59  1  0
 36 60  1  0
 37 61  1  0
M  END
>  <meeko>  (6) 
{"is_sidechain": [true], "free_energy": -16.24, "intermolecular_energy": 0.0, "internal_energy": -16.24, "cluster_size": 15, "cluster_id": 1, "rank_in_cluster": 1}

>  <_RMSD_MCS_to_ref>  (6) 
0.4663055745848305

$$$$
ligand
     RDKit          3D

 62 66  0  0  0  0  0  0  0  0999 V2000
   24.8540    9.4020    7.6050 C   0  0  0  0  0  0  0  0  0  0  0  0
   25.5230   10.7550    7.4270 C   0  0  0  0  0  0  0  0  0  0  0  0
   27.0070   10.6460    7.3670 C   0  0  0  0  0  0  0  0  0  0  0  0
   27.9250   11.5800    6.9320 C   0  0  0  0  0  0  0  0  0  0  0  0
   29.1350   10.9790    7.1270 N   0  0  0  0  0  0  0  0  0  0  0  0
   30.6280   11.5570    6.6090 S   0  0  0  0  0  6  0  0  0  0  0  0
   31.4180   10.3890    6.2750 O   0  0  0  0  0  0  0  0  0  0  0  0
   30.3150   12.5910    5.6420 O   0  0  0  0  0  0  0  0  0  0  0  0
   31.3170   12.3040    8.0570 C   0  0  0  0  0  0  0  0  0  0  0  0
   32.5960   11.9460    8.4810 C   0  0  0  0  0  0  0  0  0  0  0  0
   33.1320   12.5560    9.6120 C   0  0  0  0  0  0  0  0  0  0  0  0
   32.3960   13.5180   10.3120 C   0  0  0  0  0  0  0  0  0  0  0  0
   31.1140   13.8760    9.8860 C   0  0  0  0  0  0  0  0  0  0  0  0
   30.3000   14.8120   10.4630 O   0  0  0  0  0  0  0  0  0  0  0  0
   29.6890   15.8010    9.6240 C   0  0  0  0  0  0  0  0  0  0  0  0
   28.2420   15.8800    9.8610 C   0  0  0  0  0  0  0  0  0  0  0  0
   27.0590   15.8510   10.0640 C   0  0  0  0  0  0  0  0  0  0  0  0
   25.6760   15.8110   10.4150 C   0  0  0  0  0  0  0  0  0  0  0  0
   24.7600   15.0760    9.6490 C   0  0  0  0  0  0  0  0  0  0  0  0
   23.4030   15.0020   10.0220 C   0  0  0  0  0  0  0  0  0  0  0  0
   22.9450   15.6580   11.1650 C   0  0  0  0  0  0  0  0  0  0  0  0
   23.8690   16.3810   11.8970 C   0  0  0  0  0  0  0  0  0  0  0  0
   25.2130   16.4690   11.5400 C   0  0  0  0  0  0  0  0  0  0  0  0
   25.9470   17.3020   12.5370 C   0  0  0  0  0  0  0  0  0  0  0  0
   24.8820   17.7590   13.4200 N   0  0  0  0  0  0  0  0  0  0  0  0
   25.1900   18.4640   14.6620 C   0  0  1  0  0  0  0  0  0  0  0  0
   26.3160   17.8240   15.4740 C   0  0  0  0  0  0  0  0  0  0  0  0
   26.5130   18.6040   16.7650 C   0  0  0  0  0  0  0  0  0  0  0  0
   26.8080   20.0580   16.4810 C   0  0  0  0  0  0  0  0  0  0  0  0
   27.4060   20.7730   17.2820 O   0  0  0  0  0  0  0  0  0  0  0  0
   26.3210   20.5690   15.3050 N   0  0  0  0  0  0  0  0  0  0  0  0
   25.4820   19.9520   14.4060 C   0  0  0  0  0  0  0  0  0  0  0  0
   24.9390   20.6100   13.5170 O   0  0  0  0  0  0  0  0  0  0  0  0
   23.6720   17.1510   13.1300 C   0  0  0  0  0  0  0  0  0  0  0  0
   22.6270   17.2020   13.7470 O   0  0  0  0  0  0  0  0  0  0  0  0
   30.5680   13.2530    8.7610 C   0  0  0  0  0  0  0  0  0  0  0  0
   28.9350    9.7250    7.6080 C   0  0  0  0  0  0  0  0  0  0  0  0
   27.6480    9.4880    7.7670 N   0  0  0  0  0  0  0  0  0  0  0  0
   24.7464    9.1845    8.6779 H   0  0  0  0  0  0  0  0  0  0  0  0
   23.8606    9.4192    7.1330 H   0  0  0  0  0  0  0  0  0  0  0  0
   25.4708    8.6230    7.1330 H   0  0  0  0  0  0  0  0  0  0  0  0
   25.1631   11.2076    6.4913 H   0  0  0  0  0  0  0  0  0  0  0  0
   25.2652   11.3760    8.2976 H   0  0  0  0  0  0  0  0  0  0  0  0
   27.7268   12.5811    6.5215 H   0  0  0  0  0  0  0  0  0  0  0  0
   33.1746   11.1908    7.9287 H   0  0  0  0  0  0  0  0  0  0  0  0
   34.1394   12.2801    9.9569 H   0  0  0  0  0  0  0  0  0  0  0  0
   32.8290   13.9956   11.2033 H   0  0  0  0  0  0  0  0  0  0  0  0
   30.1412   16.7808    9.8371 H   0  0  0  0  0  0  0  0  0  0  0  0
   29.8544   15.5167    8.5743 H   0  0  0  0  0  0  0  0  0  0  0  0
   25.1047   14.5508    8.7460 H   0  0  0  0  0  0  0  0  0  0  0  0
   22.6991   14.4222    9.4069 H   0  0  0  0  0  0  0  0  0  0  0  0
   21.8902   15.6023   11.4719 H   0  0  0  0  0  0  0  0  0  0  0  0
   26.6875   16.7022   13.0864 H   0  0  0  0  0  0  0  0  0  0  0  0
   26.5190   18.1240   12.0819 H   0  0  0  0  0  0  0  0  0  0  0  0
   24.2823   18.3798   15.2777 H   0  0  0  0  0  0  0  0  0  0  0  0
   26.0519   16.7828   15.7108 H   0  0  0  0  0  0  0  0  0  0  0  0
   27.2471   17.8406   14.8885 H   0  0  0  0  0  0  0  0  0  0  0  0
   25.5971   18.5346   17.3702 H   0  0  0  0  0  0  0  0  0  0  0  0
   27.3676   18.1731   17.3072 H   0  0  0  0  0  0  0  0  0  0  0  0
   26.6180   21.5262   15.0672 H   0  0  0  0  0  0  0  0  0  0  0  0
   29.5507   13.5083    8.4293 H   0  0  0  0  0  0  0  0  0  0  0  0
   29.7364    9.0061    7.8338 H   0  0  0  0  0  0  0  0  0  0  0  0
  1  2  1  0
  2  3  1  0
  3  4  2  0
  4  5  1  0
  5  6  1  0
  6  7  2  0
  6  8  2  0
  6  9  1  0
  9 10  2  0
 10 11  1  0
 11 12  2  0
 12 13  1  0
 13 14  1  0
 14 15  1  0
 15 16  1  0
 16 17  3  0
 17 18  1  0
 18 19  2  0
 19 20  1  0
 20 21  2  0
 21 22  1  0
 22 23  2  0
 23 24  1  0
 24 25  1  0
 25 26  1  0
 26 27  1  0
 27 28  1  0
 28 29  1  0
 29 30  2  0
 29 31  1  0
 31 32  1  0
 32 33  2  0
 25 34  1  0
 34 35  2  0
 13 36  2  0
  5 37  1  0
 37 38  2  0
 38  3  1  0
 36  9  1  0
 23 18  1  0
 32 26  1  0
 34 22  1  0
  1 39  1  0
  1 40  1  0
  1 41  1  0
  2 42  1  0
  2 43  1  0
  4 44  1  0
 10 45  1  0
 11 46  1  0
 12 47  1  0
 15 48  1  0
 15 49  1  0
 19 50  1  0
 20 51  1  0
 21 52  1  0
 24 53  1  0
 24 54  1  0
 26 55  1  1
 27 56  1  0
 27 57  1  0
 28 58  1  0
 28 59  1  0
 31 60  1  0
 36 61  1  0
 37 62  1  0
M  END
>  <meeko>  (7) 
{"is_sidechain": [true], "free_energy": -16.08, "intermolecular_energy": 0.0, "internal_energy": -16.08, "cluster_size": 16, "cluster_id": 1, "rank_in_cluster": 1}

>  <_RMSD_MCS_to_ref>  (7) 
0.33907275522125474

$$$$
ligand
     RDKit          3D

 61 66  0  0  0  0  0  0  0  0999 V2000
   24.8540    9.4020    7.6050 C   0  0  0  0  0  0  0  0  0  0  0  0
   25.5230   10.7550    7.4270 C   0  0  0  0  0  0  0  0  0  0  0  0
   27.0070   10.6510    7.3700 C   0  0  0  0  0  0  0  0  0  0  0  0
   27.9150   11.5270    6.8100 C   0  0  0  0  0  0  0  0  0  0  0  0
   29.1290   10.9470    7.0460 N   0  0  0  0  0  0  0  0  0  0  0  0
   30.6460   11.5880    6.6730 S   0  0  0  0  0  6  0  0  0  0  0  0
   30.3350   12.7000    5.7930 O   0  0  0  0  0  0  0  0  0  0  0  0
   31.4430   10.4720    6.1960 O   0  0  0  0  0  0  0  0  0  0  0  0
   31.3350   12.2090    8.0100 O   0  0  0  0  0  0  0  0  0  0  0  0
   30.8030   13.3280    8.5860 C   0  0  0  0  0  0  0  0  0  0  0  0
   31.5750   14.4690    8.6700 C   0  0  0  0  0  0  0  0  0  0  0  0
   31.0880   15.6380    9.1490 N   0  0  0  0  0  0  0  0  0  0  0  0
   29.7950   15.6380    9.5330 C   0  0  0  0  0  0  0  0  0  0  0  0
   29.2080   16.7980   10.0160 C   0  0  0  0  0  0  0  0  0  0  0  0
   27.8610   16.8280   10.3940 C   0  0  0  0  0  0  0  0  0  0  0  0
   27.0720   15.6790   10.2990 C   0  0  0  0  0  0  0  0  0  0  0  0
   25.6530   15.6940   10.6690 C   0  0  0  0  0  0  0  0  0  0  0  0
   24.6960   14.9860    9.9130 C   0  0  0  0  0  0  0  0  0  0  0  0
   23.3280   14.9970   10.2470 C   0  0  0  0  0  0  0  0  0  0  0  0
   22.8750   15.7210   11.3490 C   0  0  0  0  0  0  0  0  0  0  0  0
   23.8180   16.4110   12.0820 C   0  0  0  0  0  0  0  0  0  0  0  0
   25.1790   16.4060   11.7690 C   0  0  0  0  0  0  0  0  0  0  0  0
   25.9230   17.2060   12.7910 C   0  0  0  0  0  0  0  0  0  0  0  0
   24.8570   17.7740   13.6010 N   0  0  0  0  0  0  0  0  0  0  0  0
   25.1500   18.4990   14.8320 C   0  0  1  0  0  0  0  0  0  0  0  0
   26.2210   17.8330   15.6970 C   0  0  0  0  0  0  0  0  0  0  0  0
   26.4010   18.6320   16.9780 C   0  0  0  0  0  0  0  0  0  0  0  0
   26.7530   20.0720   16.6820 C   0  0  0  0  0  0  0  0  0  0  0  0
   27.3450   20.7810   17.4890 O   0  0  0  0  0  0  0  0  0  0  0  0
   26.3040   20.5820   15.4890 N   0  0  0  0  0  0  0  0  0  0  0  0
   25.5210   19.9600   14.5430 C   0  0  0  0  0  0  0  0  0  0  0  0
   25.0770   20.5980   13.5890 O   0  0  0  0  0  0  0  0  0  0  0  0
   23.6210   17.2410   13.2760 C   0  0  0  0  0  0  0  0  0  0  0  0
   22.5570   17.3930   13.8430 O   0  0  0  0  0  0  0  0  0  0  0  0
   27.6780   14.5040    9.8300 C   0  0  0  0  0  0  0  0  0  0  0  0
   29.0080   14.4660    9.4380 C   0  0  0  0  0  0  0  0  0  0  0  0
   29.5120   13.3120    8.9620 N   0  0  0  0  0  0  0  0  0  0  0  0
   28.9480    9.8090    7.7630 C   0  0  0  0  0  0  0  0  0  0  0  0
   27.6630    9.5790    7.9490 N   0  0  0  0  0  0  0  0  0  0  0  0
   24.7464    9.1845    8.6779 H   0  0  0  0  0  0  0  0  0  0  0  0
   23.8606    9.4192    7.1330 H   0  0  0  0  0  0  0  0  0  0  0  0
   25.4708    8.6230    7.1330 H   0  0  0  0  0  0  0  0  0  0  0  0
   25.1642   11.2060    6.4901 H   0  0  0  0  0  0  0  0  0  0  0  0
   25.2633   11.3748    8.2979 H   0  0  0  0  0  0  0  0  0  0  0  0
   27.7083   12.4752    6.2922 H   0  0  0  0  0  0  0  0  0  0  0  0
   32.6223   14.4272    8.3362 H   0  0  0  0  0  0  0  0  0  0  0  0
   29.8131   17.7124   10.1037 H   0  0  0  0  0  0  0  0  0  0  0  0
   27.4200   17.7634   10.7688 H   0  0  0  0  0  0  0  0  0  0  0  0
   25.0276   14.4086    9.0374 H   0  0  0  0  0  0  0  0  0  0  0  0
   22.6117   14.4303    9.6340 H   0  0  0  0  0  0  0  0  0  0  0  0
   21.8098   15.7411   11.6226 H   0  0  0  0  0  0  0  0  0  0  0  0
   26.5791   16.5627   13.3957 H   0  0  0  0  0  0  0  0  0  0  0  0
   26.5840   17.9663   12.3493 H   0  0  0  0  0  0  0  0  0  0  0  0
   24.2195   18.4748   15.4181 H   0  0  0  0  0  0  0  0  0  0  0  0
   25.9084   16.8078   15.9443 H   0  0  0  0  0  0  0  0  0  0  0  0
   27.1724   17.8012   15.1459 H   0  0  0  0  0  0  0  0  0  0  0  0
   25.4637   18.6031   17.5531 H   0  0  0  0  0  0  0  0  0  0  0  0
   27.2246   18.1844   17.5537 H   0  0  0  0  0  0  0  0  0  0  0  0
   26.5879   21.5488   15.2756 H   0  0  0  0  0  0  0  0  0  0  0  0
   27.0792   13.5831    9.7712 H   0  0  0  0  0  0  0  0  0  0  0  0
   29.7600    9.1679    8.1368 H   0  0  0  0  0  0  0  0  0  0  0  0
  1  2  1  0
  2  3  1  0
  3  4  2  0
  4  5  1  0
  5  6  1  0
  6  7  2  0
  6  8  2  0
  6  9  1  0
  9 10  1  0
 10 11  2  0
 11 12  1  0
 12 13  2  0
 13 14  1  0
 14 15  2  0
 15 16  1  0
 16 17  1  0
 17 18  2  0
 18 19  1  0
 19 20  2  0
 20 21  1  0
 21 22  2  0
 22 23  1  0
 23 24  1  0
 24 25  1  0
 25 26  1  0
 26 27  1  0
 27 28  1  0
 28 29  2  0
 28 30  1  0
 30 31  1  0
 31 32  2  0
 24 33  1  0
 33 34  2  0
 16 35  2  0
 35 36  1  0
 36 37  2  0
  5 38  1  0
 38 39  2  0
 39  3  1  0
 37 10  1  0
 36 13  1  0
 22 17  1  0
 31 25  1  0
 33 21  1  0
  1 40  1  0
  1 41  1  0
  1 42  1  0
  2 43  1  0
  2 44  1  0
  4 45  1  0
 11 46  1  0
 14 47  1  0
 15 48  1  0
 18 49  1  0
 19 50  1  0
 20 51  1  0
 23 52  1  0
 23 53  1  0
 25 54  1  1
 26 55  1  0
 26 56  1  0
 27 57  1  0
 27 58  1  0
 30 59  1  0
 35 60  1  0
 38 61  1  0
M  END
>  <meeko>  (8) 
{"is_sidechain": [true], "free_energy": -16.08, "intermolecular_energy": 0.0, "internal_energy": -16.08, "cluster_size": 20, "cluster_id": 1, "rank_in_cluster": 1}

>  <_RMSD_MCS_to_ref>  (8) 
0.3889257284138217

$$$$
ligand
     RDKit          3D

 62 67  0  0  0  0  0  0  0  0999 V2000
   24.8540    9.4020    7.6050 C   0  0  0  0  0  0  0  0  0  0  0  0
   25.5230   10.7550    7.4270 C   0  0  0  0  0  0  0  0  0  0  0  0
   26.9320   10.6280    6.9640 C   0  0  0  0  0  0  0  0  0  0  0  0
   28.0940   10.6590    7.7080 C   0  0  0  0  0  0  0  0  0  0  0  0
   29.0900   10.5260    6.7820 N   0  0  0  0  0  0  0  0  0  0  0  0
   30.7280   10.8580    7.0390 S   0  0  0  0  0  6  0  0  0  0  0  0
   31.1150   10.0110    8.1520 O   0  0  0  0  0  0  0  0  0  0  0  0
   31.3340   10.6990    5.7290 O   0  0  0  0  0  0  0  0  0  0  0  0
   30.8540   12.4350    7.4720 O   0  0  0  0  0  0  0  0  0  0  0  0
   29.7070   13.1620    7.6440 C   0  0  0  0  0  0  0  0  0  0  0  0
   29.3000   13.5580    8.9110 C   0  0  0  0  0  0  0  0  0  0  0  0
   28.1120   14.2760    9.0570 C   0  0  0  0  0  0  0  0  0  0  0  0
   27.3130   14.6250    7.9420 C   0  0  0  0  0  0  0  0  0  0  0  0
   26.0900   15.3400    8.0380 C   0  0  0  0  0  0  0  0  0  0  0  0
   25.5220   15.7920    9.3140 C   0  0  0  0  0  0  0  0  0  0  0  0
   24.2620   15.3080    9.7440 C   0  0  0  0  0  0  0  0  0  0  0  0
   23.7010   15.7210   10.9560 C   0  0  0  0  0  0  0  0  0  0  0  0
   24.4240   16.6210   11.7140 C   0  0  0  0  0  0  0  0  0  0  0  0
   25.6670   17.1120   11.3200 C   0  0  0  0  0  0  0  0  0  0  0  0
   26.2300   16.7040   10.1220 C   0  0  0  0  0  0  0  0  0  0  0  0
   26.2010   18.0350   12.3610 C   0  0  0  0  0  0  0  0  0  0  0  0
   25.1030   18.1130   13.3160 N   0  0  0  0  0  0  0  0  0  0  0  0
   25.2770   18.7430   14.6210 C   0  0  1  0  0  0  0  0  0  0  0  0
   26.3160   18.0550   15.5050 C   0  0  0  0  0  0  0  0  0  0  0  0
   26.3700   18.7520   16.8550 C   0  0  0  0  0  0  0  0  0  0  0  0
   26.6690   20.2240   16.7010 C   0  0  0  0  0  0  0  0  0  0  0  0
   27.1610   20.8910   17.6070 O   0  0  0  0  0  0  0  0  0  0  0  0
   26.2880   20.8110   15.5200 N   0  0  0  0  0  0  0  0  0  0  0  0
   25.5950   20.2390   14.4770 C   0  0  0  0  0  0  0  0  0  0  0  0
   25.1800   20.9350   13.5510 O   0  0  0  0  0  0  0  0  0  0  0  0
   24.0890   17.2160   13.0120 C   0  0  0  0  0  0  0  0  0  0  0  0
   23.1070   16.9320   13.6680 O   0  0  0  0  0  0  0  0  0  0  0  0
   25.4050   15.6130    6.8510 C   0  0  0  0  0  0  0  0  0  0  0  0
   25.8190   15.2450    5.6190 N   0  0  0  0  0  0  0  0  0  0  0  0
   26.9850   14.5690    5.5550 C   0  0  0  0  0  0  0  0  0  0  0  0
   27.7680   14.2330    6.6610 C   0  0  0  0  0  0  0  0  0  0  0  0
   28.9690   13.5170    6.5190 C   0  0  0  0  0  0  0  0  0  0  0  0
   28.5360   10.4490    5.5430 C   0  0  0  0  0  0  0  0  0  0  0  0
   27.2230   10.4940    5.6200 N   0  0  0  0  0  0  0  0  0  0  0  0
   24.7464    9.1845    8.6779 H   0  0  0  0  0  0  0  0  0  0  0  0
   23.8606    9.4192    7.1330 H   0  0  0  0  0  0  0  0  0  0  0  0
   25.4708    8.6230    7.1330 H   0  0  0  0  0  0  0  0  0  0  0  0
   24.9567   11.3354    6.6838 H   0  0  0  0  0  0  0  0  0  0  0  0
   25.5325   11.2587    8.4048 H   0  0  0  0  0  0  0  0  0  0  0  0
   28.1953   10.7663    8.7981 H   0  0  0  0  0  0  0  0  0  0  0  0
   29.9088   13.3080    9.7924 H   0  0  0  0  0  0  0  0  0  0  0  0
   27.7885   14.5782   10.0640 H   0  0  0  0  0  0  0  0  0  0  0  0
   23.7144   14.5934    9.1120 H   0  0  0  0  0  0  0  0  0  0  0  0
   22.7236   15.3445   11.2922 H   0  0  0  0  0  0  0  0  0  0  0  0
   27.2125   17.0852    9.8069 H   0  0  0  0  0  0  0  0  0  0  0  0
   27.1060   17.6219   12.8304 H   0  0  0  0  0  0  0  0  0  0  0  0
   26.5019   19.0149   11.9618 H   0  0  0  0  0  0  0  0  0  0  0  0
   24.3117   18.6275   15.1356 H   0  0  0  0  0  0  0  0  0  0  0  0
   26.0368   17.0006   15.6471 H   0  0  0  0  0  0  0  0  0  0  0  0
   27.3033   18.1097   15.0230 H   0  0  0  0  0  0  0  0  0  0  0  0
   25.3989   18.6344   17.3581 H   0  0  0  0  0  0  0  0  0  0  0  0
   27.1744   18.2947   17.4498 H   0  0  0  0  0  0  0  0  0  0  0  0
   26.5527   21.7991   15.3996 H   0  0  0  0  0  0  0  0  0  0  0  0
   24.4586   16.1687    6.9254 H   0  0  0  0  0  0  0  0  0  0  0  0
   27.3438   14.2610    4.5618 H   0  0  0  0  0  0  0  0  0  0  0  0
   29.3261   13.2368    5.5170 H   0  0  0  0  0  0  0  0  0  0  0  0
   29.1060   10.3613    4.6063 H   0  0  0  0  0  0  0  0  0  0  0  0
  1  2  1  0
  2  3  1  0
  3  4  2  0
  4  5  1  0
  5  6  1  0
  6  7  2  0
  6  8  2  0
  6  9  1  0
  9 10  1  0
 10 11  2  0
 11 12  1  0
 12 13  2  0
 13 14  1  0
 14 15  1  0
 15 16  2  0
 16 17  1  0
 17 18  2  0
 18 19  1  0
 19 20  2  0
 19 21  1  0
 21 22  1  0
 22 23  1  0
 23 24  1  0
 24 25  1  0
 25 26  1  0
 26 27  2  0
 26 28  1  0
 28 29  1  0
 29 30  2  0
 22 31  1  0
 31 32  2  0
 14 33  2  0
 33 34  1  0
 34 35  2  0
 35 36  1  0
 36 37  2  0
  5 38  1  0
 38 39  2  0
 39  3  1  0
 37 10  1  0
 36 13  1  0
 20 15  1  0
 29 23  1  0
 31 18  1  0
  1 40  1  0
  1 41  1  0
  1 42  1  0
  2 43  1  0
  2 44  1  0
  4 45  1  0
 11 46  1  0
 12 47  1  0
 16 48  1  0
 17 49  1  0
 20 50  1  0
 21 51  1  0
 21 52  1  0
 23 53  1  1
 24 54  1  0
 24 55  1  0
 25 56  1  0
 25 57  1  0
 28 58  1  0
 33 59  1  0
 35 60  1  0
 37 61  1  0
 38 62  1  0
M  END
>  <meeko>  (9) 
{"is_sidechain": [true], "free_energy": -16.03, "intermolecular_energy": 0.0, "internal_energy": -16.03, "cluster_size": 20, "cluster_id": 1, "rank_in_cluster": 1}

>  <_RMSD_MCS_to_ref>  (9) 
0.5534152549798774

$$$$
ligand
     RDKit          3D

 61 66  0  0  0  0  0  0  0  0999 V2000
   24.8540    9.4020    7.6050 C   0  0  0  0  0  0  0  0  0  0  0  0
   25.5230   10.7550    7.4270 C   0  0  0  0  0  0  0  0  0  0  0  0
   27.0010   10.6750    7.5770 C   0  0  0  0  0  0  0  0  0  0  0  0
   27.9100   11.7010    7.7430 C   0  0  0  0  0  0  0  0  0  0  0  0
   29.1120   11.0660    7.8620 N   0  0  0  0  0  0  0  0  0  0  0  0
   30.6140   11.7650    8.1710 S   0  0  0  0  0  6  0  0  0  0  0  0
   30.9260   12.5980    7.0230 O   0  0  0  0  0  0  0  0  0  0  0  0
   31.4580   10.6250    8.4930 O   0  0  0  0  0  0  0  0  0  0  0  0
   30.5200   12.6790    9.5150 O   0  0  0  0  0  0  0  0  0  0  0  0
   29.5040   13.5870    9.6610 C   0  0  0  0  0  0  0  0  0  0  0  0
   28.3280   13.1330   10.2170 C   0  0  0  0  0  0  0  0  0  0  0  0
   27.2840   14.0370   10.3360 C   0  0  0  0  0  0  0  0  0  0  0  0
   27.4440   15.3690    9.8920 C   0  0  0  0  0  0  0  0  0  0  0  0
   26.4380   16.3690    9.9850 C   0  0  0  0  0  0  0  0  0  0  0  0
   25.1250   16.1170   10.5900 C   0  0  0  0  0  0  0  0  0  0  0  0
   24.2030   15.2420    9.9830 C   0  0  0  0  0  0  0  0  0  0  0  0
   22.9450   14.9790   10.5590 C   0  0  0  0  0  0  0  0  0  0  0  0
   22.5740   15.5860   11.7570 C   0  0  0  0  0  0  0  0  0  0  0  0
   23.4840   16.4500   12.3370 C   0  0  0  0  0  0  0  0  0  0  0  0
   24.7320   16.7230   11.7800 C   0  0  0  0  0  0  0  0  0  0  0  0
   25.4750   17.6740   12.6610 C   0  0  0  0  0  0  0  0  0  0  0  0
   24.5080   17.9750   13.7070 N   0  0  0  0  0  0  0  0  0  0  0  0
   24.9130   18.6590   14.9310 C   0  0  1  0  0  0  0  0  0  0  0  0
   25.9320   17.8840   15.7660 C   0  0  0  0  0  0  0  0  0  0  0  0
   26.2310   18.6600   17.0400 C   0  0  0  0  0  0  0  0  0  0  0  0
   26.7260   20.0540   16.7290 C   0  0  0  0  0  0  0  0  0  0  0  0
   27.4190   20.6920   17.5150 O   0  0  0  0  0  0  0  0  0  0  0  0
   26.2950   20.6130   15.5520 N   0  0  0  0  0  0  0  0  0  0  0  0
   25.4330   20.0740   14.6240 C   0  0  0  0  0  0  0  0  0  0  0  0
   25.0420   20.7490   13.6720 O   0  0  0  0  0  0  0  0  0  0  0  0
   23.3650   17.1990   13.5920 C   0  0  0  0  0  0  0  0  0  0  0  0
   22.4330   17.1030   14.3660 O   0  0  0  0  0  0  0  0  0  0  0  0
   26.7160   17.6430    9.4880 C   0  0  0  0  0  0  0  0  0  0  0  0
   27.9580   17.8760    8.9420 C   0  0  0  0  0  0  0  0  0  0  0  0
   28.9250   16.9410    8.8610 N   0  0  0  0  0  0  0  0  0  0  0  0
   28.6840   15.7160    9.3180 C   0  0  0  0  0  0  0  0  0  0  0  0
   29.6780   14.8360    9.2060 N   0  0  0  0  0  0  0  0  0  0  0  0
   28.9200    9.7250    7.7630 C   0  0  0  0  0  0  0  0  0  0  0  0
   27.6450    9.4510    7.5810 N   0  0  0  0  0  0  0  0  0  0  0  0
   24.7464    9.1845    8.6779 H   0  0  0  0  0  0  0  0  0  0  0  0
   23.8606    9.4192    7.1330 H   0  0  0  0  0  0  0  0  0  0  0  0
   25.4708    8.6230    7.1330 H   0  0  0  0  0  0  0  0  0  0  0  0
   25.2890   11.1365    6.4221 H   0  0  0  0  0  0  0  0  0  0  0  0
   25.1400   11.4267    8.2093 H   0  0  0  0  0  0  0  0  0  0  0  0
   27.7109   12.7824    7.7725 H   0  0  0  0  0  0  0  0  0  0  0  0
   28.2215   12.0914   10.5541 H   0  0  0  0  0  0  0  0  0  0  0  0
   26.3286   13.7168   10.7771 H   0  0  0  0  0  0  0  0  0  0  0  0
   24.4722   14.7520    9.0357 H   0  0  0  0  0  0  0  0  0  0  0  0
   22.2497   14.2887   10.0590 H   0  0  0  0  0  0  0  0  0  0  0  0
   21.5974   15.3860   12.2220 H   0  0  0  0  0  0  0  0  0  0  0  0
   26.3765   17.2029   13.0797 H   0  0  0  0  0  0  0  0  0  0  0  0
   25.8315   18.5688   12.1297 H   0  0  0  0  0  0  0  0  0  0  0  0
   24.0037   18.7290   15.5461 H   0  0  0  0  0  0  0  0  0  0  0  0
   25.5209   16.8971   16.0246 H   0  0  0  0  0  0  0  0  0  0  0  0
   26.8587   17.7524   15.1882 H   0  0  0  0  0  0  0  0  0  0  0  0
   25.3121   18.7314   17.6404 H   0  0  0  0  0  0  0  0  0  0  0  0
   27.0173   18.1275   17.5951 H   0  0  0  0  0  0  0  0  0  0  0  0
   26.6616   21.5511   15.3366 H   0  0  0  0  0  0  0  0  0  0  0  0
   25.9609   18.4417    9.5315 H   0  0  0  0  0  0  0  0  0  0  0  0
   28.1730   18.8811    8.5501 H   0  0  0  0  0  0  0  0  0  0  0  0
   29.7193    8.9719    7.8261 H   0  0  0  0  0  0  0  0  0  0  0  0
  1  2  1  0
  2  3  1  0
  3  4  2  0
  4  5  1  0
  5  6  1  0
  6  7  2  0
  6  8  2  0
  6  9  1  0
  9 10  1  0
 10 11  2  0
 11 12  1  0
 12 13  2  0
 13 14  1  0
 14 15  1  0
 15 16  2  0
 16 17  1  0
 17 18  2  0
 18 19  1  0
 19 20  2  0
 20 21  1  0
 21 22  1  0
 22 23  1  0
 23 24  1  0
 24 25  1  0
 25 26  1  0
 26 27  2  0
 26 28  1  0
 28 29  1  0
 29 30  2  0
 22 31  1  0
 31 32  2  0
 14 33  2  0
 33 34  1  0
 34 35  2  0
 35 36  1  0
 36 37  2  0
  5 38  1  0
 38 39  2  0
 39  3  1  0
 37 10  1  0
 36 13  1  0
 20 15  1  0
 29 23  1  0
 31 19  1  0
  1 40  1  0
  1 41  1  0
  1 42  1  0
  2 43  1  0
  2 44  1  0
  4 45  1  0
 11 46  1  0
 12 47  1  0
 16 48  1  0
 17 49  1  0
 18 50  1  0
 21 51  1  0
 21 52  1  0
 23 53  1  1
 24 54  1  0
 24 55  1  0
 25 56  1  0
 25 57  1  0
 28 58  1  0
 33 59  1  0
 34 60  1  0
 38 61  1  0
M  END
>  <meeko>  (10) 
{"is_sidechain": [true], "free_energy": -16.02, "intermolecular_energy": 0.0, "internal_energy": -16.02, "cluster_size": 15, "cluster_id": 1, "rank_in_cluster": 1}

>  <_RMSD_MCS_to_ref>  (10) 
0.43279659066227494

$$$$
ligand
     RDKit          3D

 63 67  0  0  0  0  0  0  0  0999 V2000
   24.8540    9.4020    7.6050 C   0  0  0  0  0  0  0  0  0  0  0  0
   25.5230   10.7550    7.4270 C   0  0  0  0  0  0  0  0  0  0  0  0
   27.0040   10.6410    7.3320 C   0  0  0  0  0  0  0  0  0  0  0  0
   27.8860   11.3810    6.5690 C   0  0  0  0  0  0  0  0  0  0  0  0
   29.1120   10.8720    6.8870 N   0  0  0  0  0  0  0  0  0  0  0  0
   30.5690   11.2570    6.1500 S   0  0  0  0  0  6  0  0  0  0  0  0
   30.2140   11.7820    4.8460 O   0  0  0  0  0  0  0  0  0  0  0  0
   31.4310   10.0980    6.3030 O   0  0  0  0  0  0  0  0  0  0  0  0
   31.2430   12.5660    7.1290 C   0  0  0  0  0  0  0  0  0  0  0  0
   32.5380   13.0150    6.8830 C   0  0  0  0  0  0  0  0  0  0  0  0
   33.0510   14.0470    7.6610 C   0  0  0  0  0  0  0  0  0  0  0  0
   32.2630   14.6410    8.6510 C   0  0  0  0  0  0  0  0  0  0  0  0
   30.9350   14.2470    8.8630 C   0  0  0  0  0  0  0  0  0  0  0  0
   30.1090   14.8130    9.8430 N   0  0  0  0  0  0  0  0  0  0  0  0
   29.5500   16.1530    9.6480 C   0  0  0  0  0  0  0  0  0  0  0  0
   28.1130   16.1620    9.9510 C   0  0  0  0  0  0  0  0  0  0  0  0
   26.9350   16.0460   10.1490 C   0  0  0  0  0  0  0  0  0  0  0  0
   25.5650   15.9490   10.5400 C   0  0  0  0  0  0  0  0  0  0  0  0
   24.6420   15.2060    9.7940 C   0  0  0  0  0  0  0  0  0  0  0  0
   23.3020   15.0920   10.2140 C   0  0  0  0  0  0  0  0  0  0  0  0
   22.8670   15.7160   11.3860 C   0  0  0  0  0  0  0  0  0  0  0  0
   23.7980   16.4470   12.1000 C   0  0  0  0  0  0  0  0  0  0  0  0
   25.1250   16.5720   11.6950 C   0  0  0  0  0  0  0  0  0  0  0  0
   25.8780   17.3990   12.6810 C   0  0  0  0  0  0  0  0  0  0  0  0
   24.8380   17.8260   13.6070 N   0  0  0  0  0  0  0  0  0  0  0  0
   25.1800   18.5280   14.8400 C   0  0  1  0  0  0  0  0  0  0  0  0
   26.2800   17.8530   15.6580 C   0  0  0  0  0  0  0  0  0  0  0  0
   26.4830   18.6230   16.9550 C   0  0  0  0  0  0  0  0  0  0  0  0
   26.8090   20.0740   16.6840 C   0  0  0  0  0  0  0  0  0  0  0  0
   27.3820   20.7830   17.5080 O   0  0  0  0  0  0  0  0  0  0  0  0
   26.3720   20.5940   15.4920 N   0  0  0  0  0  0  0  0  0  0  0  0
   25.5330   20.0010   14.5770 C   0  0  0  0  0  0  0  0  0  0  0  0
   25.0330   20.6720   13.6740 O   0  0  0  0  0  0  0  0  0  0  0  0
   23.6310   17.1960   13.3520 C   0  0  0  0  0  0  0  0  0  0  0  0
   22.6090   17.2190   14.0090 O   0  0  0  0  0  0  0  0  0  0  0  0
   30.4500   13.1660    8.1160 C   0  0  0  0  0  0  0  0  0  0  0  0
   28.9570    9.8500    7.7680 C   0  0  0  0  0  0  0  0  0  0  0  0
   27.6850    9.6880    8.0640 N   0  0  0  0  0  0  0  0  0  0  0  0
   24.7464    9.1845    8.6779 H   0  0  0  0  0  0  0  0  0  0  0  0
   23.8606    9.4192    7.1330 H   0  0  0  0  0  0  0  0  0  0  0  0
   25.4708    8.6230    7.1330 H   0  0  0  0  0  0  0  0  0  0  0  0
   25.1435   11.2194    6.5049 H   0  0  0  0  0  0  0  0  0  0  0  0
   25.2871   11.3675    8.3097 H   0  0  0  0  0  0  0  0  0  0  0  0
   27.6536   12.1944    5.8659 H   0  0  0  0  0  0  0  0  0  0  0  0
   33.1452   12.5607    6.0862 H   0  0  0  0  0  0  0  0  0  0  0  0
   34.0807   14.3972    7.4968 H   0  0  0  0  0  0  0  0  0  0  0  0
   32.6949   15.4353    9.2775 H   0  0  0  0  0  0  0  0  0  0  0  0
   29.8945   14.2862   10.7017 H   0  0  0  0  0  0  0  0  0  0  0  0
   30.0647   16.8601   10.3151 H   0  0  0  0  0  0  0  0  0  0  0  0
   29.6932   16.4480    8.5980 H   0  0  0  0  0  0  0  0  0  0  0  0
   24.9667   14.7057    8.8697 H   0  0  0  0  0  0  0  0  0  0  0  0
   22.5911   14.5058    9.6132 H   0  0  0  0  0  0  0  0  0  0  0  0
   21.8248   15.6290   11.7271 H   0  0  0  0  0  0  0  0  0  0  0  0
   26.6451   16.8014   13.1952 H   0  0  0  0  0  0  0  0  0  0  0  0
   26.4214   18.2373   12.2206 H   0  0  0  0  0  0  0  0  0  0  0  0
   24.2677   18.4829   15.4530 H   0  0  0  0  0  0  0  0  0  0  0  0
   25.9859   16.8180   15.8867 H   0  0  0  0  0  0  0  0  0  0  0  0
   27.2171   17.8455   15.0820 H   0  0  0  0  0  0  0  0  0  0  0  0
   25.5614   18.5679   17.5530 H   0  0  0  0  0  0  0  0  0  0  0  0
   27.3260   18.1724   17.4993 H   0  0  0  0  0  0  0  0  0  0  0  0
   26.7112   21.5372   15.2547 H   0  0  0  0  0  0  0  0  0  0  0  0
   29.4361   12.7842    8.3062 H   0  0  0  0  0  0  0  0  0  0  0  0
   29.7787    9.2433    8.1764 H   0  0  0  0  0  0  0  0  0  0  0  0
  1  2  1  0
  2  3  1  0
  3  4  2  0
  4  5  1  0
  5  6  1  0
  6  7  2  0
  6  8  2  0
  6  9  1  0
  9 10  2  0
 10 11  1  0
 11 12  2  0
 12 13  1  0
 13 14  1  0
 14 15  1  0
 15 16  1  0
 16 17  3  0
 17 18  1  0
 18 19  2  0
 19 20  1  0
 20 21  2  0
 21 22  1  0
 22 23  2  0
 23 24  1  0
 24 25  1  0
 25 26  1  0
 26 27  1  0
 27 28  1  0
 28 29  1  0
 29 30  2  0
 29 31  1  0
 31 32  1  0
 32 33  2  0
 25 34  1  0
 34 35  2  0
 13 36  2  0
  5 37  1  0
 37 38  2  0
 38  3  1  0
 36  9  1  0
 23 18  1  0
 32 26  1  0
 34 22  1  0
  1 39  1  0
  1 40  1  0
  1 41  1  0
  2 42  1  0
  2 43  1  0
  4 44  1  0
 10 45  1  0
 11 46  1  0
 12 47  1  0
 14 48  1  0
 15 49  1  0
 15 50  1  0
 19 51  1  0
 20 52  1  0
 21 53  1  0
 24 54  1  0
 24 55  1  0
 26 56  1  1
 27 57  1  0
 27 58  1  0
 28 59  1  0
 28 60  1  0
 31 61  1  0
 36 62  1  0
 37 63  1  0
M  END
>  <meeko>  (11) 
{"is_sidechain": [true], "free_energy": -15.97, "intermolecular_energy": 0.0, "internal_energy": -15.97, "cluster_size": 15, "cluster_id": 1, "rank_in_cluster": 1}

>  <_RMSD_MCS_to_ref>  (11) 
0.400633110075651

$$$$
ligand
     RDKit          3D

 61 66  0  0  0  0  0  0  0  0999 V2000
   24.8540    9.4020    7.6050 C   0  0  0  0  0  0  0  0  0  0  0  0
   25.5230   10.7550    7.4270 C   0  0  0  0  0  0  0  0  0  0  0  0
   27.0060   10.6420    7.3630 C   0  0  0  0  0  0  0  0  0  0  0  0
   27.9600   11.2920    8.1210 C   0  0  0  0  0  0  0  0  0  0  0  0
   29.1430   10.7650    7.6920 N   0  0  0  0  0  0  0  0  0  0  0  0
   30.6860   11.2480    8.1630 S   0  0  0  0  0  6  0  0  0  0  0  0
   31.1350   12.0580    7.0450 O   0  0  0  0  0  0  0  0  0  0  0  0
   31.3760   10.0200    8.5080 O   0  0  0  0  0  0  0  0  0  0  0  0
   30.5850   12.2090    9.4700 O   0  0  0  0  0  0  0  0  0  0  0  0
   30.5330   13.5550    9.4730 C   0  0  0  0  0  0  0  0  0  0  0  0
   31.6900   14.2630    9.2520 C   0  0  0  0  0  0  0  0  0  0  0  0
   31.3810   15.5930    9.2740 N   0  0  0  0  0  0  0  0  0  0  0  0
   30.0380   15.7590    9.5280 C   0  0  0  0  0  0  0  0  0  0  0  0
   29.3050   16.9450    9.6420 C   0  0  0  0  0  0  0  0  0  0  0  0
   27.9440   16.8440    9.9350 C   0  0  0  0  0  0  0  0  0  0  0  0
   27.3270   15.6040   10.1210 C   0  0  0  0  0  0  0  0  0  0  0  0
   25.8920   15.5310   10.4150 C   0  0  0  0  0  0  0  0  0  0  0  0
   25.0120   14.7890    9.6030 C   0  0  0  0  0  0  0  0  0  0  0  0
   23.6330   14.7130    9.8850 C   0  0  0  0  0  0  0  0  0  0  0  0
   23.0960   15.3780   10.9860 C   0  0  0  0  0  0  0  0  0  0  0  0
   23.9680   16.1010   11.7750 C   0  0  0  0  0  0  0  0  0  0  0  0
   25.3350   16.1810   11.5110 C   0  0  0  0  0  0  0  0  0  0  0  0
   25.9990   17.0020   12.5640 C   0  0  0  0  0  0  0  0  0  0  0  0
   24.8770   17.5020   13.3400 N   0  0  0  0  0  0  0  0  0  0  0  0
   25.0960   18.2770   14.5550 C   0  0  1  0  0  0  0  0  0  0  0  0
   26.1890   17.7080   15.4580 C   0  0  0  0  0  0  0  0  0  0  0  0
   26.2760   18.5460   16.7240 C   0  0  0  0  0  0  0  0  0  0  0  0
   26.5280   20.0000   16.4020 C   0  0  0  0  0  0  0  0  0  0  0  0
   27.0350   20.7730   17.2110 O   0  0  0  0  0  0  0  0  0  0  0  0
   26.0890   20.4480   15.1810 N   0  0  0  0  0  0  0  0  0  0  0  0
   25.3730   19.7530   14.2330 C   0  0  0  0  0  0  0  0  0  0  0  0
   24.9080   20.3380   13.2560 O   0  0  0  0  0  0  0  0  0  0  0  0
   23.6840   16.9040   12.9720 C   0  0  0  0  0  0  0  0  0  0  0  0
   22.5950   16.9950   13.5030 O   0  0  0  0  0  0  0  0  0  0  0  0
   28.0970   14.4270   10.0070 C   0  0  0  0  0  0  0  0  0  0  0  0
   29.4720   14.4880    9.6870 C   0  0  0  0  0  0  0  0  0  0  0  0
   28.9050    9.9500    6.6320 C   0  0  0  0  0  0  0  0  0  0  0  0
   27.6080    9.8070    6.4400 N   0  0  0  0  0  0  0  0  0  0  0  0
   24.7464    9.1845    8.6779 H   0  0  0  0  0  0  0  0  0  0  0  0
   23.8606    9.4192    7.1330 H   0  0  0  0  0  0  0  0  0  0  0  0
   25.4708    8.6230    7.1330 H   0  0  0  0  0  0  0  0  0  0  0  0
   25.1612   11.2095    6.4929 H   0  0  0  0  0  0  0  0  0  0  0  0
   25.2678   11.3764    8.2980 H   0  0  0  0  0  0  0  0  0  0  0  0
   27.8022   12.0589    8.8936 H   0  0  0  0  0  0  0  0  0  0  0  0
   32.6892   13.8338    9.0865 H   0  0  0  0  0  0  0  0  0  0  0  0
   32.0532   16.3587    9.1229 H   0  0  0  0  0  0  0  0  0  0  0  0
   29.7854   17.9251    9.5052 H   0  0  0  0  0  0  0  0  0  0  0  0
   27.3434   17.7615   10.0215 H   0  0  0  0  0  0  0  0  0  0  0  0
   25.4107   14.2558    8.7274 H   0  0  0  0  0  0  0  0  0  0  0  0
   22.9746   14.1234    9.2301 H   0  0  0  0  0  0  0  0  0  0  0  0
   22.0216   15.3287   11.2167 H   0  0  0  0  0  0  0  0  0  0  0  0
   26.6662   16.3857   13.1845 H   0  0  0  0  0  0  0  0  0  0  0  0
   26.6355   17.8008   12.1556 H   0  0  0  0  0  0  0  0  0  0  0  0
   24.1574   18.2054   15.1241 H   0  0  0  0  0  0  0  0  0  0  0  0
   25.9451   16.6681   15.7208 H   0  0  0  0  0  0  0  0  0  0  0  0
   27.1543   17.7320   14.9311 H   0  0  0  0  0  0  0  0  0  0  0  0
   25.3288   18.4601   17.2766 H   0  0  0  0  0  0  0  0  0  0  0  0
   27.1148   18.1737   17.3305 H   0  0  0  0  0  0  0  0  0  0  0  0
   26.3240   21.4228   14.9456 H   0  0  0  0  0  0  0  0  0  0  0  0
   27.6205   13.4490   10.1694 H   0  0  0  0  0  0  0  0  0  0  0  0
   29.6853    9.4753    6.0190 H   0  0  0  0  0  0  0  0  0  0  0  0
  1  2  1  0
  2  3  1  0
  3  4  2  0
  4  5  1  0
  5  6  1  0
  6  7  2  0
  6  8  2  0
  6  9  1  0
  9 10  1  0
 10 11  2  0
 11 12  1  0
 12 13  1  0
 13 14  2  0
 14 15  1  0
 15 16  2  0
 16 17  1  0
 17 18  2  0
 18 19  1  0
 19 20  2  0
 20 21  1  0
 21 22  2  0
 22 23  1  0
 23 24  1  0
 24 25  1  0
 25 26  1  0
 26 27  1  0
 27 28  1  0
 28 29  2  0
 28 30  1  0
 30 31  1  0
 31 32  2  0
 24 33  1  0
 33 34  2  0
 16 35  1  0
 35 36  2  0
  5 37  1  0
 37 38  2  0
 38  3  1  0
 36 10  1  0
 36 13  1  0
 22 17  1  0
 31 25  1  0
 33 21  1  0
  1 39  1  0
  1 40  1  0
  1 41  1  0
  2 42  1  0
  2 43  1  0
  4 44  1  0
 11 45  1  0
 12 46  1  0
 14 47  1  0
 15 48  1  0
 18 49  1  0
 19 50  1  0
 20 51  1  0
 23 52  1  0
 23 53  1  0
 25 54  1  1
 26 55  1  0
 26 56  1  0
 27 57  1  0
 27 58  1  0
 30 59  1  0
 35 60  1  0
 37 61  1  0
M  END
>  <meeko>  (12) 
{"is_sidechain": [true], "free_energy": -15.91, "intermolecular_energy": 0.0, "internal_energy": -15.91, "cluster_size": 20, "cluster_id": 1, "rank_in_cluster": 1}

>  <_RMSD_MCS_to_ref>  (12) 
0.40982204810272327

$$$$
ligand
     RDKit          3D

 62 67  0  0  0  0  0  0  0  0999 V2000
   24.8540    9.4020    7.6050 C   0  0  0  0  0  0  0  0  0  0  0  0
   25.5230   10.7550    7.4270 C   0  0  0  0  0  0  0  0  0  0  0  0
   27.0050   10.6440    7.3620 C   0  0  0  0  0  0  0  0  0  0  0  0
   27.9110   11.4710    6.7260 C   0  0  0  0  0  0  0  0  0  0  0  0
   29.1240   10.9010    6.9900 N   0  0  0  0  0  0  0  0  0  0  0  0
   30.6150   11.4750    6.4530 S   0  0  0  0  0  6  0  0  0  0  0  0
   30.3280   12.4700    5.4350 O   0  0  0  0  0  0  0  0  0  0  0  0
   31.3380   10.2630    6.1030 O   0  0  0  0  0  0  0  0  0  0  0  0
   31.4120   12.1620    7.6940 O   0  0  0  0  0  0  0  0  0  0  0  0
   30.9040   13.2820    8.3010 C   0  0  0  0  0  0  0  0  0  0  0  0
   29.5510   13.2750    8.6020 C   0  0  0  0  0  0  0  0  0  0  0  0
   28.9860   14.4150    9.1880 C   0  0  0  0  0  0  0  0  0  0  0  0
   27.6240   14.4780    9.5310 C   0  0  0  0  0  0  0  0  0  0  0  0
   27.0690   15.6270   10.1220 C   0  0  0  0  0  0  0  0  0  0  0  0
   25.6500   15.6720   10.4830 C   0  0  0  0  0  0  0  0  0  0  0  0
   24.6840   14.9920    9.7150 C   0  0  0  0  0  0  0  0  0  0  0  0
   23.3160   15.0120   10.0550 C   0  0  0  0  0  0  0  0  0  0  0  0
   22.8770   15.7160   11.1740 C   0  0  0  0  0  0  0  0  0  0  0  0
   23.8310   16.3870   11.9130 C   0  0  0  0  0  0  0  0  0  0  0  0
   25.1890   16.3770   11.5910 C   0  0  0  0  0  0  0  0  0  0  0  0
   25.9440   17.1900   12.5910 C   0  0  0  0  0  0  0  0  0  0  0  0
   24.8900   17.7330   13.4370 N   0  0  0  0  0  0  0  0  0  0  0  0
   25.2030   18.4030   14.6940 C   0  0  1  0  0  0  0  0  0  0  0  0
   26.3090   17.7210   15.5000 C   0  0  0  0  0  0  0  0  0  0  0  0
   26.5080   18.4640   16.8120 C   0  0  0  0  0  0  0  0  0  0  0  0
   26.8250   19.9220   16.5730 C   0  0  0  0  0  0  0  0  0  0  0  0
   27.4200   20.6060   17.3990 O   0  0  0  0  0  0  0  0  0  0  0  0
   26.3400   20.4760   15.4140 N   0  0  0  0  0  0  0  0  0  0  0  0
   25.5390   19.8850   14.4650 C   0  0  0  0  0  0  0  0  0  0  0  0
   25.0510   20.5590   13.5570 O   0  0  0  0  0  0  0  0  0  0  0  0
   23.6510   17.1980   13.1230 C   0  0  0  0  0  0  0  0  0  0  0  0
   22.5970   17.3300   13.7130 O   0  0  0  0  0  0  0  0  0  0  0  0
   27.9040   16.7270   10.3590 C   0  0  0  0  0  0  0  0  0  0  0  0
   29.2590   16.6830   10.0220 C   0  0  0  0  0  0  0  0  0  0  0  0
   29.8080   15.5300    9.4390 C   0  0  0  0  0  0  0  0  0  0  0  0
   31.1530   15.4270    9.0820 C   0  0  0  0  0  0  0  0  0  0  0  0
   31.7130   14.3310    8.5170 N   0  0  0  0  0  0  0  0  0  0  0  0
   28.9420    9.7880    7.7460 C   0  0  0  0  0  0  0  0  0  0  0  0
   27.6600    9.6030    7.9930 N   0  0  0  0  0  0  0  0  0  0  0  0
   24.7464    9.1845    8.6779 H   0  0  0  0  0  0  0  0  0  0  0  0
   23.8606    9.4192    7.1330 H   0  0  0  0  0  0  0  0  0  0  0  0
   25.4708    8.6230    7.1330 H   0  0  0  0  0  0  0  0  0  0  0  0
   25.1604   11.2096    6.4933 H   0  0  0  0  0  0  0  0  0  0  0  0
   25.2684   11.3753    8.2990 H   0  0  0  0  0  0  0  0  0  0  0  0
   27.7032   12.3794    6.1415 H   0  0  0  0  0  0  0  0  0  0  0  0
   28.9329   12.3914    8.3849 H   0  0  0  0  0  0  0  0  0  0  0  0
   26.9785   13.6097    9.3328 H   0  0  0  0  0  0  0  0  0  0  0  0
   25.0061   14.4302    8.8258 H   0  0  0  0  0  0  0  0  0  0  0  0
   22.5904   14.4680    9.4325 H   0  0  0  0  0  0  0  0  0  0  0  0
   21.8143   15.7365   11.4572 H   0  0  0  0  0  0  0  0  0  0  0  0
   26.6328   16.5602   13.1732 H   0  0  0  0  0  0  0  0  0  0  0  0
   26.5732   17.9664   12.1313 H   0  0  0  0  0  0  0  0  0  0  0  0
   24.2892   18.3290   15.3018 H   0  0  0  0  0  0  0  0  0  0  0  0
   26.0230   16.6793   15.7077 H   0  0  0  0  0  0  0  0  0  0  0  0
   27.2459   17.7346   14.9238 H   0  0  0  0  0  0  0  0  0  0  0  0
   25.5870   18.3905   17.4090 H   0  0  0  0  0  0  0  0  0  0  0  0
   27.3544   18.0070   17.3456 H   0  0  0  0  0  0  0  0  0  0  0  0
   26.6090   21.4537   15.2332 H   0  0  0  0  0  0  0  0  0  0  0  0
   27.4873   17.6366   10.8162 H   0  0  0  0  0  0  0  0  0  0  0  0
   29.8992   17.5565   10.2145 H   0  0  0  0  0  0  0  0  0  0  0  0
   31.8021   16.2944    9.2723 H   0  0  0  0  0  0  0  0  0  0  0  0
   29.7504    9.1327    8.1024 H   0  0  0  0  0  0  0  0  0  0  0  0
  1  2  1  0
  2  3  1  0
  3  4  2  0
  4  5  1  0
  5  6  1  0
  6  7  2  0
  6  8  2  0
  6  9  1  0
  9 10  1  0
 10 11  2  0
 11 12  1  0
 12 13  2  0
 13 14  1  0
 14 15  1  0
 15 16  2  0
 16 17  1  0
 17 18  2  0
 18 19  1  0
 19 20  2  0
 20 21  1  0
 21 22  1  0
 22 23  1  0
 23 24  1  0
 24 25  1  0
 25 26  1  0
 26 27  2  0
 26 28  1  0
 28 29  1  0
 29 30  2  0
 22 31  1  0
 31 32  2  0
 14 33  2  0
 33 34  1  0
 34 35  2  0
 35 36  1  0
 36 37  2  0
  5 38  1  0
 38 39  2  0
 39  3  1  0
 37 10  1  0
 35 12  1  0
 20 15  1  0
 29 23  1  0
 31 19  1  0
  1 40  1  0
  1 41  1  0
  1 42  1  0
  2 43  1  0
  2 44  1  0
  4 45  1  0
 11 46  1  0
 13 47  1  0
 16 48  1  0
 17 49  1  0
 18 50  1  0
 21 51  1  0
 21 52  1  0
 23 53  1  1
 24 54  1  0
 24 55  1  0
 25 56  1  0
 25 57  1  0
 28 58  1  0
 33 59  1  0
 34 60  1  0
 36 61  1  0
 38 62  1  0
M  END
>  <meeko>  (13) 
{"is_sidechain": [true], "free_energy": -15.86, "intermolecular_energy": 0.0, "internal_energy": -15.86, "cluster_size": 20, "cluster_id": 1, "rank_in_cluster": 1}

>  <_RMSD_MCS_to_ref>  (13) 
0.3450671432248118

$$$$
ligand
     RDKit          3D

 63 68  0  0  0  0  0  0  0  0999 V2000
   24.8540    9.4020    7.6050 C   0  0  0  0  0  0  0  0  0  0  0  0
   25.5230   10.7550    7.4270 C   0  0  0  0  0  0  0  0  0  0  0  0
   24.7790   11.6310    6.4810 C   0  0  0  0  0  0  0  0  0  0  0  0
   25.0220   11.8640    5.1410 C   0  0  0  0  0  0  0  0  0  0  0  0
   24.0200   12.7120    4.7670 N   0  0  0  0  0  0  0  0  0  0  0  0
   23.8190   13.3930    3.2520 S   0  0  0  0  0  6  0  0  0  0  0  0
   22.4010   13.2720    2.9780 O   0  0  0  0  0  0  0  0  0  0  0  0
   24.8220   12.8090    2.3850 O   0  0  0  0  0  0  0  0  0  0  0  0
   24.1280   15.1220    3.2460 C   0  0  0  0  0  0  0  0  0  0  0  0
   23.8120   16.0570    2.2690 C   0  0  0  0  0  0  0  0  0  0  0  0
   24.0070   17.3020    2.8650 C   0  0  0  0  0  0  0  0  0  0  0  0
   24.4290   17.1890    4.1200 N   0  0  0  0  0  0  0  0  0  0  0  0
   24.6570   15.8560    4.2970 N   0  0  0  0  0  0  0  0  0  0  0  0
   25.3260   15.4470    5.4850 C   0  0  0  0  0  0  0  0  0  0  0  0
   26.5040   14.6940    5.3710 C   0  0  0  0  0  0  0  0  0  0  0  0
   27.2210   14.3320    6.5110 C   0  0  0  0  0  0  0  0  0  0  0  0
   26.7610   14.7060    7.7710 C   0  0  0  0  0  0  0  0  0  0  0  0
   25.5590   15.4140    7.9110 C   0  0  0  0  0  0  0  0  0  0  0  0
   25.0780   15.8180    9.2360 C   0  0  0  0  0  0  0  0  0  0  0  0
   23.8390   15.3420    9.7310 C   0  0  0  0  0  0  0  0  0  0  0  0
   23.3610   15.7320   10.9840 C   0  0  0  0  0  0  0  0  0  0  0  0
   24.1380   16.6080   11.7160 C   0  0  0  0  0  0  0  0  0  0  0  0
   25.3590   17.0920   11.2570 C   0  0  0  0  0  0  0  0  0  0  0  0
   25.8440   16.7030   10.0210 C   0  0  0  0  0  0  0  0  0  0  0  0
   25.9640   18.0000   12.2730 C   0  0  0  0  0  0  0  0  0  0  0  0
   24.9290   18.0680   13.2960 N   0  0  0  0  0  0  0  0  0  0  0  0
   25.1850   18.6880   14.5910 C   0  0  1  0  0  0  0  0  0  0  0  0
   26.2750   17.9890   15.4020 C   0  0  0  0  0  0  0  0  0  0  0  0
   26.4170   18.6750   16.7520 C   0  0  0  0  0  0  0  0  0  0  0  0
   26.7130   20.1480   16.5890 C   0  0  0  0  0  0  0  0  0  0  0  0
   27.2650   20.8050   17.4670 O   0  0  0  0  0  0  0  0  0  0  0  0
   26.2590   20.7450   15.4410 N   0  0  0  0  0  0  0  0  0  0  0  0
   25.5000   20.1840   14.4390 C   0  0  0  0  0  0  0  0  0  0  0  0
   25.0300   20.8910   13.5480 O   0  0  0  0  0  0  0  0  0  0  0  0
   23.8900   17.1840   13.0420 C   0  0  0  0  0  0  0  0  0  0  0  0
   22.9480   16.8990   13.7540 O   0  0  0  0  0  0  0  0  0  0  0  0
   24.8320   15.7540    6.7570 C   0  0  0  0  0  0  0  0  0  0  0  0
   23.2810   13.0410    5.8570 C   0  0  0  0  0  0  0  0  0  0  0  0
   23.6920   12.3670    6.9120 N   0  0  0  0  0  0  0  0  0  0  0  0
   24.7464    9.1845    8.6779 H   0  0  0  0  0  0  0  0  0  0  0  0
   23.8606    9.4192    7.1330 H   0  0  0  0  0  0  0  0  0  0  0  0
   25.4708    8.6230    7.1330 H   0  0  0  0  0  0  0  0  0  0  0  0
   25.5763   11.2551    8.4053 H   0  0  0  0  0  0  0  0  0  0  0  0
   26.5261   10.5830    7.0096 H   0  0  0  0  0  0  0  0  0  0  0  0
   25.8347   11.4598    4.5196 H   0  0  0  0  0  0  0  0  0  0  0  0
   23.4778   15.8570    1.2402 H   0  0  0  0  0  0  0  0  0  0  0  0
   23.8326   18.2623    2.3576 H   0  0  0  0  0  0  0  0  0  0  0  0
   26.8639   14.3876    4.3777 H   0  0  0  0  0  0  0  0  0  0  0  0
   28.1501   13.7509    6.4149 H   0  0  0  0  0  0  0  0  0  0  0  0
   27.3461   14.4435    8.6647 H   0  0  0  0  0  0  0  0  0  0  0  0
   23.2419   14.6520    9.1167 H   0  0  0  0  0  0  0  0  0  0  0  0
   22.4030   15.3561   11.3726 H   0  0  0  0  0  0  0  0  0  0  0  0
   26.8118   17.0784    9.6569 H   0  0  0  0  0  0  0  0  0  0  0  0
   26.8955   17.5778   12.6782 H   0  0  0  0  0  0  0  0  0  0  0  0
   26.2442   18.9838   11.8685 H   0  0  0  0  0  0  0  0  0  0  0  0
   24.2526   18.5736   15.1634 H   0  0  0  0  0  0  0  0  0  0  0  0
   26.0011   16.9344   15.5530 H   0  0  0  0  0  0  0  0  0  0  0  0
   27.2301   18.0441   14.8590 H   0  0  0  0  0  0  0  0  0  0  0  0
   25.4789   18.5578   17.3143 H   0  0  0  0  0  0  0  0  0  0  0  0
   27.2544   18.2095   17.2925 H   0  0  0  0  0  0  0  0  0  0  0  0
   26.5174   21.7338   15.3128 H   0  0  0  0  0  0  0  0  0  0  0  0
   23.8640   16.2671    6.8554 H   0  0  0  0  0  0  0  0  0  0  0  0
   22.4554   13.7679    5.8593 H   0  0  0  0  0  0  0  0  0  0  0  0
  1  2  1  0
  2  3  1  0
  3  4  2  0
  4  5  1  0
  5  6  1  0
  6  7  2  0
  6  8  2  0
  6  9  1  0
  9 10  2  0
 10 11  1  0
 11 12  2  0
 12 13  1  0
 13 14  1  0
 14 15  2  0
 15 16  1  0
 16 17  2  0
 17 18  1  0
 18 19  1  0
 19 20  2  0
 20 21  1  0
 21 22  2  0
 22 23  1  0
 23 24  2  0
 23 25  1  0
 25 26  1  0
 26 27  1  0
 27 28  1  0
 28 29  1  0
 29 30  1  0
 30 31  2  0
 30 32  1  0
 32 33  1  0
 33 34  2  0
 26 35  1  0
 35 36  2  0
 18 37  2  0
  5 38  1  0
 38 39  2  0
 39  3  1  0
 13  9  1  0
 37 14  1  0
 24 19  1  0
 33 27  1  0
 35 22  1  0
  1 40  1  0
  1 41  1  0
  1 42  1  0
  2 43  1  0
  2 44  1  0
  4 45  1  0
 10 46  1  0
 11 47  1  0
 15 48  1  0
 16 49  1  0
 17 50  1  0
 20 51  1  0
 21 52  1  0
 24 53  1  0
 25 54  1  0
 25 55  1  0
 27 56  1  1
 28 57  1  0
 28 58  1  0
 29 59  1  0
 29 60  1  0
 32 61  1  0
 37 62  1  0
 38 63  1  0
M  END
>  <meeko>  (14) 
{"is_sidechain": [true], "free_energy": -15.74, "intermolecular_energy": 0.0, "internal_energy": -15.74, "cluster_size": 17, "cluster_id": 1, "rank_in_cluster": 1}

>  <_RMSD_MCS_to_ref>  (14) 
0.4522194649110582

$$$$
ligand
     RDKit          3D

 62 67  0  0  0  0  0  0  0  0999 V2000
   24.8540    9.4020    7.6050 C   0  0  0  0  0  0  0  0  0  0  0  0
   25.5230   10.7550    7.4270 C   0  0  0  0  0  0  0  0  0  0  0  0
   26.9730   10.6250    7.1180 C   0  0  0  0  0  0  0  0  0  0  0  0
   27.6110   10.7270    5.8970 C   0  0  0  0  0  0  0  0  0  0  0  0
   28.9320   10.5470    6.1920 N   0  0  0  0  0  0  0  0  0  0  0  0
   30.2320   10.8900    5.1660 S   0  0  0  0  0  6  0  0  0  0  0  0
   31.4040   10.5690    5.9590 O   0  0  0  0  0  0  0  0  0  0  0  0
   29.9410   10.1770    3.9350 O   0  0  0  0  0  0  0  0  0  0  0  0
   30.2350   12.5030    4.8800 O   0  0  0  0  0  0  0  0  0  0  0  0
   29.0840   13.2160    5.0770 C   0  0  0  0  0  0  0  0  0  0  0  0
   28.3500   13.5960    3.9570 C   0  0  0  0  0  0  0  0  0  0  0  0
   27.1880   14.3490    4.1180 C   0  0  0  0  0  0  0  0  0  0  0  0
   26.7480   14.7080    5.4050 C   0  0  0  0  0  0  0  0  0  0  0  0
   25.6030   15.4710    5.6280 C   0  0  0  0  0  0  0  0  0  0  0  0
   25.1500   15.8350    6.8510 N   0  0  0  0  0  0  0  0  0  0  0  0
   25.8470   15.4190    7.9370 C   0  0  0  0  0  0  0  0  0  0  0  0
   25.3000   15.8410    9.2460 C   0  0  0  0  0  0  0  0  0  0  0  0
   24.0560   15.3500    9.7290 C   0  0  0  0  0  0  0  0  0  0  0  0
   23.5370   15.7430   10.9690 C   0  0  0  0  0  0  0  0  0  0  0  0
   24.2770   16.6400   11.7110 C   0  0  0  0  0  0  0  0  0  0  0  0
   25.4930   17.1500   11.2730 C   0  0  0  0  0  0  0  0  0  0  0  0
   26.0110   16.7610   10.0490 C   0  0  0  0  0  0  0  0  0  0  0  0
   26.0560   18.0770   12.2960 C   0  0  0  0  0  0  0  0  0  0  0  0
   24.9980   18.1280   13.2970 N   0  0  0  0  0  0  0  0  0  0  0  0
   25.2140   18.7600   14.5940 C   0  0  1  0  0  0  0  0  0  0  0  0
   26.2660   18.0570   15.4520 C   0  0  0  0  0  0  0  0  0  0  0  0
   26.3680   18.7570   16.7980 C   0  0  0  0  0  0  0  0  0  0  0  0
   26.6870   20.2240   16.6300 C   0  0  0  0  0  0  0  0  0  0  0  0
   27.2140   20.8860   17.5210 O   0  0  0  0  0  0  0  0  0  0  0  0
   26.2810   20.8140   15.4590 N   0  0  0  0  0  0  0  0  0  0  0  0
   25.5520   20.2500   14.4360 C   0  0  0  0  0  0  0  0  0  0  0  0
   25.1240   20.9510   13.5200 O   0  0  0  0  0  0  0  0  0  0  0  0
   23.9860   17.2200   13.0260 C   0  0  0  0  0  0  0  0  0  0  0  0
   23.0350   16.9160   13.7210 O   0  0  0  0  0  0  0  0  0  0  0  0
   27.0100   14.6570    7.8110 C   0  0  0  0  0  0  0  0  0  0  0  0
   27.4730   14.2950    6.5370 C   0  0  0  0  0  0  0  0  0  0  0  0
   28.6420   13.5360    6.3620 C   0  0  0  0  0  0  0  0  0  0  0  0
   29.0690   10.3770    7.5330 C   0  0  0  0  0  0  0  0  0  0  0  0
   27.8930   10.4050    8.1250 N   0  0  0  0  0  0  0  0  0  0  0  0
   24.7464    9.1845    8.6779 H   0  0  0  0  0  0  0  0  0  0  0  0
   23.8606    9.4192    7.1330 H   0  0  0  0  0  0  0  0  0  0  0  0
   25.4708    8.6230    7.1330 H   0  0  0  0  0  0  0  0  0  0  0  0
   25.0305   11.2885    6.6007 H   0  0  0  0  0  0  0  0  0  0  0  0
   25.4260   11.3084    8.3727 H   0  0  0  0  0  0  0  0  0  0  0  0
   27.1581   10.9112    4.9117 H   0  0  0  0  0  0  0  0  0  0  0  0
   28.6849   13.3038    2.9508 H   0  0  0  0  0  0  0  0  0  0  0  0
   26.6127   14.6638    3.2349 H   0  0  0  0  0  0  0  0  0  0  0  0
   25.0278   15.8001    4.7500 H   0  0  0  0  0  0  0  0  0  0  0  0
   23.4850   14.6413    9.1111 H   0  0  0  0  0  0  0  0  0  0  0  0
   22.5770   15.3517   11.3368 H   0  0  0  0  0  0  0  0  0  0  0  0
   26.9730   17.1670    9.7029 H   0  0  0  0  0  0  0  0  0  0  0  0
   26.9877   17.6779   12.7233 H   0  0  0  0  0  0  0  0  0  0  0  0
   26.3228   19.0645   11.8913 H   0  0  0  0  0  0  0  0  0  0  0  0
   24.2606   18.6634   15.1341 H   0  0  0  0  0  0  0  0  0  0  0  0
   25.9736   17.0077   15.6050 H   0  0  0  0  0  0  0  0  0  0  0  0
   27.2405   18.0941   14.9432 H   0  0  0  0  0  0  0  0  0  0  0  0
   25.4091   18.6570   17.3276 H   0  0  0  0  0  0  0  0  0  0  0  0
   27.1803   18.2883   17.3728 H   0  0  0  0  0  0  0  0  0  0  0  0
   26.5550   21.7984   15.3298 H   0  0  0  0  0  0  0  0  0  0  0  0
   27.5621   14.3412    8.7085 H   0  0  0  0  0  0  0  0  0  0  0  0
   29.2103   13.1931    7.2392 H   0  0  0  0  0  0  0  0  0  0  0  0
   30.0286   10.2357    8.0519 H   0  0  0  0  0  0  0  0  0  0  0  0
  1  2  1  0
  2  3  1  0
  3  4  2  0
  4  5  1  0
  5  6  1  0
  6  7  2  0
  6  8  2  0
  6  9  1  0
  9 10  1  0
 10 11  2  0
 11 12  1  0
 12 13  2  0
 13 14  1  0
 14 15  2  0
 15 16  1  0
 16 17  1  0
 17 18  2  0
 18 19  1  0
 19 20  2  0
 20 21  1  0
 21 22  2  0
 21 23  1  0
 23 24  1  0
 24 25  1  0
 25 26  1  0
 26 27  1  0
 27 28  1  0
 28 29  2  0
 28 30  1  0
 30 31  1  0
 31 32  2  0
 24 33  1  0
 33 34  2  0
 16 35  2  0
 35 36  1  0
 36 37  2  0
  5 38  1  0
 38 39  2  0
 39  3  1  0
 37 10  1  0
 36 13  1  0
 22 17  1  0
 31 25  1  0
 33 20  1  0
  1 40  1  0
  1 41  1  0
  1 42  1  0
  2 43  1  0
  2 44  1  0
  4 45  1  0
 11 46  1  0
 12 47  1  0
 14 48  1  0
 18 49  1  0
 19 50  1  0
 22 51  1  0
 23 52  1  0
 23 53  1  0
 25 54  1  1
 26 55  1  0
 26 56  1  0
 27 57  1  0
 27 58  1  0
 30 59  1  0
 35 60  1  0
 37 61  1  0
 38 62  1  0
M  END
>  <meeko>  (15) 
{"is_sidechain": [true], "free_energy": -15.71, "intermolecular_energy": 0.0, "internal_energy": -15.71, "cluster_size": 19, "cluster_id": 1, "rank_in_cluster": 1}

>  <_RMSD_MCS_to_ref>  (15) 
0.5245094004029958

$$$$
ligand
     RDKit          3D

 62 66  0  0  0  0  0  0  0  0999 V2000
   24.8540    9.4020    7.6050 C   0  0  0  0  0  0  0  0  0  0  0  0
   25.5230   10.7550    7.4270 C   0  0  0  0  0  0  0  0  0  0  0  0
   27.0080   10.6530    7.4420 C   0  0  0  0  0  0  0  0  0  0  0  0
   27.9470   11.6170    7.1290 C   0  0  0  0  0  0  0  0  0  0  0  0
   29.1440   11.0030    7.3460 N   0  0  0  0  0  0  0  0  0  0  0  0
   30.6670   11.7170    7.2820 S   0  0  0  0  0  6  0  0  0  0  0  0
   30.4140   12.9400    6.5400 O   0  0  0  0  0  0  0  0  0  0  0  0
   31.5590   10.6780    6.8070 O   0  0  0  0  0  0  0  0  0  0  0  0
   31.1160   12.1080    8.9510 C   0  0  0  0  0  0  0  0  0  0  0  0
   32.0570   11.3250    9.6370 C   0  0  0  0  0  0  0  0  0  0  0  0
   32.3570   11.6100   10.9670 C   0  0  0  0  0  0  0  0  0  0  0  0
   31.7350   12.6800   11.6050 C   0  0  0  0  0  0  0  0  0  0  0  0
   30.8220   13.4810   10.9130 C   0  0  0  0  0  0  0  0  0  0  0  0
   30.5030   13.2050    9.5790 C   0  0  0  0  0  0  0  0  0  0  0  0
   29.6900   13.9960    8.8170 O   0  0  0  0  0  0  0  0  0  0  0  0
   29.3490   15.3030    9.2920 C   0  0  0  0  0  0  0  0  0  0  0  0
   27.9370   15.3700    9.6830 C   0  0  0  0  0  0  0  0  0  0  0  0
   26.7670   15.4030    9.9510 C   0  0  0  0  0  0  0  0  0  0  0  0
   25.3940   15.4730   10.3410 C   0  0  0  0  0  0  0  0  0  0  0  0
   24.3860   14.9450    9.5240 C   0  0  0  0  0  0  0  0  0  0  0  0
   23.0320   15.0260    9.9040 C   0  0  0  0  0  0  0  0  0  0  0  0
   22.6670   15.6400   11.1050 C   0  0  0  0  0  0  0  0  0  0  0  0
   23.6830   16.1480   11.8930 C   0  0  0  0  0  0  0  0  0  0  0  0
   25.0270   16.0710   11.5330 C   0  0  0  0  0  0  0  0  0  0  0  0
   25.8720   16.7250   12.5730 C   0  0  0  0  0  0  0  0  0  0  0  0
   24.8930   17.1120   13.5850 N   0  0  0  0  0  0  0  0  0  0  0  0
   25.1980   18.0510   14.6610 C   0  0  1  0  0  0  0  0  0  0  0  0
   26.2880   17.5230   15.5880 C   0  0  0  0  0  0  0  0  0  0  0  0
   26.5330   18.5270   16.7020 C   0  0  0  0  0  0  0  0  0  0  0  0
   26.9260   19.8700   16.1360 C   0  0  0  0  0  0  0  0  0  0  0  0
   27.7380   20.6010   16.6980 O   0  0  0  0  0  0  0  0  0  0  0  0
   26.3020   20.2430   14.9710 N   0  0  0  0  0  0  0  0  0  0  0  0
   25.6160   19.4230   14.1020 C   0  0  0  0  0  0  0  0  0  0  0  0
   25.3660   19.7960   12.9570 O   0  0  0  0  0  0  0  0  0  0  0  0
   23.5930   16.8530   13.1770 C   0  0  0  0  0  0  0  0  0  0  0  0
   22.5570   17.1420   13.7430 O   0  0  0  0  0  0  0  0  0  0  0  0
   28.9230    9.7300    7.7660 C   0  0  0  0  0  0  0  0  0  0  0  0
   27.6300    9.4820    7.8350 N   0  0  0  0  0  0  0  0  0  0  0  0
   24.7464    9.1845    8.6779 H   0  0  0  0  0  0  0  0  0  0  0  0
   23.8606    9.4192    7.1330 H   0  0  0  0  0  0  0  0  0  0  0  0
   25.4708    8.6230    7.1330 H   0  0  0  0  0  0  0  0  0  0  0  0
   25.2068   11.1829    6.4642 H   0  0  0  0  0  0  0  0  0  0  0  0
   25.2195   11.3957    8.2681 H   0  0  0  0  0  0  0  0  0  0  0  0
   27.7689   12.6460    6.7833 H   0  0  0  0  0  0  0  0  0  0  0  0
   32.5562   10.4886    9.1259 H   0  0  0  0  0  0  0  0  0  0  0  0
   33.0842   10.9907   11.5125 H   0  0  0  0  0  0  0  0  0  0  0  0
   31.9633   12.8961   12.6591 H   0  0  0  0  0  0  0  0  0  0  0  0
   30.3506   14.3351   11.4213 H   0  0  0  0  0  0  0  0  0  0  0  0
   29.9752   15.5433   10.1639 H   0  0  0  0  0  0  0  0  0  0  0  0
   29.5221   16.0260    8.4812 H   0  0  0  0  0  0  0  0  0  0  0  0
   24.6552   14.4610    8.5736 H   0  0  0  0  0  0  0  0  0  0  0  0
   22.2556   14.6024    9.2499 H   0  0  0  0  0  0  0  0  0  0  0  0
   21.6132   15.7161   11.4112 H   0  0  0  0  0  0  0  0  0  0  0  0
   26.6106   16.0212   12.9842 H   0  0  0  0  0  0  0  0  0  0  0  0
   26.4605   17.5712   12.1887 H   0  0  0  0  0  0  0  0  0  0  0  0
   24.2738   18.1674   15.2461 H   0  0  0  0  0  0  0  0  0  0  0  0
   25.9681   16.5642   16.0219 H   0  0  0  0  0  0  0  0  0  0  0  0
   27.2161   17.3743   15.0166 H   0  0  0  0  0  0  0  0  0  0  0  0
   25.6129   18.6404   17.2941 H   0  0  0  0  0  0  0  0  0  0  0  0
   27.3529   18.1577   17.3356 H   0  0  0  0  0  0  0  0  0  0  0  0
   26.3521   21.2408   14.7205 H   0  0  0  0  0  0  0  0  0  0  0  0
   29.7135    9.0064    8.0141 H   0  0  0  0  0  0  0  0  0  0  0  0
  1  2  1  0
  2  3  1  0
  3  4  2  0
  4  5  1  0
  5  6  1  0
  6  7  2  0
  6  8  2  0
  6  9  1  0
  9 10  2  0
 10 11  1  0
 11 12  2  0
 12 13  1  0
 13 14  2  0
 14 15  1  0
 15 16  1  0
 16 17  1  0
 17 18  3  0
 18 19  1  0
 19 20  2  0
 20 21  1  0
 21 22  2  0
 22 23  1  0
 23 24  2  0
 24 25  1  0
 25 26  1  0
 26 27  1  0
 27 28  1  0
 28 29  1  0
 29 30  1  0
 30 31  2  0
 30 32  1  0
 32 33  1  0
 33 34  2  0
 26 35  1  0
 35 36  2  0
  5 37  1  0
 37 38  2  0
 38  3  1  0
 14  9  1  0
 24 19  1  0
 33 27  1  0
 35 23  1  0
  1 39  1  0
  1 40  1  0
  1 41  1  0
  2 42  1  0
  2 43  1  0
  4 44  1  0
 10 45  1  0
 11 46  1  0
 12 47  1  0
 13 48  1  0
 16 49  1  0
 16 50  1  0
 20 51  1  0
 21 52  1  0
 22 53  1  0
 25 54  1  0
 25 55  1  0
 27 56  1  1
 28 57  1  0
 28 58  1  0
 29 59  1  0
 29 60  1  0
 32 61  1  0
 37 62  1  0
M  END
>  <meeko>  (16) 
{"is_sidechain": [true], "free_energy": -15.67, "intermolecular_energy": 0.0, "internal_energy": -15.67, "cluster_size": 15, "cluster_id": 1, "rank_in_cluster": 1}

>  <_RMSD_MCS_to_ref>  (16) 
0.6709993376383551

$$$$
ligand
     RDKit          3D

 62 67  0  0  0  0  0  0  0  0999 V2000
   24.8540    9.4020    7.6050 C   0  0  0  0  0  0  0  0  0  0  0  0
   25.5230   10.7550    7.4270 C   0  0  0  0  0  0  0  0  0  0  0  0
   26.9980   10.6820    7.6090 C   0  0  0  0  0  0  0  0  0  0  0  0
   27.8950   11.7050    7.8450 C   0  0  0  0  0  0  0  0  0  0  0  0
   29.1040   11.0760    7.9300 N   0  0  0  0  0  0  0  0  0  0  0  0
   30.5900   11.8270    8.1920 S   0  0  0  0  0  6  0  0  0  0  0  0
   30.8150   12.6920    7.0470 O   0  0  0  0  0  0  0  0  0  0  0  0
   31.4890   10.7140    8.4540 O   0  0  0  0  0  0  0  0  0  0  0  0
   30.5230   12.7200    9.5500 O   0  0  0  0  0  0  0  0  0  0  0  0
   29.5140   13.6340    9.7100 C   0  0  0  0  0  0  0  0  0  0  0  0
   28.3350   13.1890   10.2670 C   0  0  0  0  0  0  0  0  0  0  0  0
   27.2930   14.1020   10.3920 C   0  0  0  0  0  0  0  0  0  0  0  0
   27.4440   15.4350    9.9500 C   0  0  0  0  0  0  0  0  0  0  0  0
   26.4270   16.4300   10.0530 C   0  0  0  0  0  0  0  0  0  0  0  0
   25.1210   16.1620   10.6690 C   0  0  0  0  0  0  0  0  0  0  0  0
   24.2110   15.2620   10.0810 C   0  0  0  0  0  0  0  0  0  0  0  0
   22.9610   14.9860   10.6680 C   0  0  0  0  0  0  0  0  0  0  0  0
   22.5870   15.6040   11.8590 C   0  0  0  0  0  0  0  0  0  0  0  0
   23.4840   16.4920   12.4210 C   0  0  0  0  0  0  0  0  0  0  0  0
   24.7250   16.7780   11.8520 C   0  0  0  0  0  0  0  0  0  0  0  0
   25.4580   17.7540   12.7130 C   0  0  0  0  0  0  0  0  0  0  0  0
   24.4900   18.0580   13.7580 N   0  0  0  0  0  0  0  0  0  0  0  0
   24.8860   18.7780   14.9650 C   0  0  1  0  0  0  0  0  0  0  0  0
   25.8710   18.0120   15.8460 C   0  0  0  0  0  0  0  0  0  0  0  0
   26.1650   18.8240   17.0970 C   0  0  0  0  0  0  0  0  0  0  0  0
   26.6930   20.1950   16.7490 C   0  0  0  0  0  0  0  0  0  0  0  0
   27.3850   20.8470   17.5260 O   0  0  0  0  0  0  0  0  0  0  0  0
   26.2970   20.7220   15.5450 N   0  0  0  0  0  0  0  0  0  0  0  0
   25.4400   20.1700   14.6200 C   0  0  0  0  0  0  0  0  0  0  0  0
   25.0820   20.8200   13.6380 O   0  0  0  0  0  0  0  0  0  0  0  0
   23.3590   17.2630   13.6620 C   0  0  0  0  0  0  0  0  0  0  0  0
   22.4320   17.1670   14.4420 O   0  0  0  0  0  0  0  0  0  0  0  0
   26.6780   17.7200    9.5560 C   0  0  0  0  0  0  0  0  0  0  0  0
   27.9040   18.0280    8.9800 C   0  0  0  0  0  0  0  0  0  0  0  0
   28.8930   17.0500    8.8950 C   0  0  0  0  0  0  0  0  0  0  0  0
   28.6900   15.7640    9.3710 C   0  0  0  0  0  0  0  0  0  0  0  0
   29.6990   14.8830    9.2550 N   0  0  0  0  0  0  0  0  0  0  0  0
   28.9260    9.7400    7.7610 C   0  0  0  0  0  0  0  0  0  0  0  0
   27.6530    9.4660    7.5580 N   0  0  0  0  0  0  0  0  0  0  0  0
   24.7464    9.1845    8.6779 H   0  0  0  0  0  0  0  0  0  0  0  0
   23.8606    9.4192    7.1330 H   0  0  0  0  0  0  0  0  0  0  0  0
   25.4708    8.6230    7.1330 H   0  0  0  0  0  0  0  0  0  0  0  0
   25.3092   11.1251    6.4134 H   0  0  0  0  0  0  0  0  0  0  0  0
   25.1216   11.4333    8.1943 H   0  0  0  0  0  0  0  0  0  0  0  0
   27.6840   12.7802    7.9422 H   0  0  0  0  0  0  0  0  0  0  0  0
   28.2216   12.1472   10.6015 H   0  0  0  0  0  0  0  0  0  0  0  0
   26.3407   13.7823   10.8401 H   0  0  0  0  0  0  0  0  0  0  0  0
   24.4835   14.7622    9.1397 H   0  0  0  0  0  0  0  0  0  0  0  0
   22.2746   14.2769   10.1822 H   0  0  0  0  0  0  0  0  0  0  0  0
   21.6169   15.3936   12.3329 H   0  0  0  0  0  0  0  0  0  0  0  0
   26.3680   17.3032   13.1357 H   0  0  0  0  0  0  0  0  0  0  0  0
   25.7999   18.6447   12.1655 H   0  0  0  0  0  0  0  0  0  0  0  0
   23.9668   18.8896   15.5589 H   0  0  0  0  0  0  0  0  0  0  0  0
   25.4328   17.0442   16.1310 H   0  0  0  0  0  0  0  0  0  0  0  0
   26.8050   17.8408   15.2907 H   0  0  0  0  0  0  0  0  0  0  0  0
   25.2381   18.9340   17.6790 H   0  0  0  0  0  0  0  0  0  0  0  0
   26.9313   18.2949   17.6825 H   0  0  0  0  0  0  0  0  0  0  0  0
   26.6892   21.6435   15.3042 H   0  0  0  0  0  0  0  0  0  0  0  0
   25.8975   18.4922    9.6235 H   0  0  0  0  0  0  0  0  0  0  0  0
   28.0934   19.0399    8.5925 H   0  0  0  0  0  0  0  0  0  0  0  0
   29.8605   17.3052    8.4380 H   0  0  0  0  0  0  0  0  0  0  0  0
   29.7316    8.9916    7.7896 H   0  0  0  0  0  0  0  0  0  0  0  0
  1  2  1  0
  2  3  1  0
  3  4  2  0
  4  5  1  0
  5  6  1  0
  6  7  2  0
  6  8  2  0
  6  9  1  0
  9 10  1  0
 10 11  2  0
 11 12  1  0
 12 13  2  0
 13 14  1  0
 14 15  1  0
 15 16  2  0
 16 17  1  0
 17 18  2  0
 18 19  1  0
 19 20  2  0
 20 21  1  0
 21 22  1  0
 22 23  1  0
 23 24  1  0
 24 25  1  0
 25 26  1  0
 26 27  2  0
 26 28  1  0
 28 29  1  0
 29 30  2  0
 22 31  1  0
 31 32  2  0
 14 33  2  0
 33 34  1  0
 34 35  2  0
 35 36  1  0
 36 37  2  0
  5 38  1  0
 38 39  2  0
 39  3  1  0
 37 10  1  0
 36 13  1  0
 20 15  1  0
 29 23  1  0
 31 19  1  0
  1 40  1  0
  1 41  1  0
  1 42  1  0
  2 43  1  0
  2 44  1  0
  4 45  1  0
 11 46  1  0
 12 47  1  0
 16 48  1  0
 17 49  1  0
 18 50  1  0
 21 51  1  0
 21 52  1  0
 23 53  1  1
 24 54  1  0
 24 55  1  0
 25 56  1  0
 25 57  1  0
 28 58  1  0
 33 59  1  0
 34 60  1  0
 35 61  1  0
 38 62  1  0
M  END
>  <meeko>  (17) 
{"is_sidechain": [true], "free_energy": -15.61, "intermolecular_energy": 0.0, "internal_energy": -15.61, "cluster_size": 14, "cluster_id": 1, "rank_in_cluster": 1}

>  <_RMSD_MCS_to_ref>  (17) 
0.5241592209328089

$$$$
ligand
     RDKit          3D

 61 65  0  0  0  0  0  0  0  0999 V2000
   24.8540    9.4020    7.6050 C   0  0  0  0  0  0  0  0  0  0  0  0
   25.5230   10.7550    7.4270 C   0  0  0  0  0  0  0  0  0  0  0  0
   27.0090   10.6520    7.4250 C   0  0  0  0  0  0  0  0  0  0  0  0
   27.9460   11.6660    7.4430 C   0  0  0  0  0  0  0  0  0  0  0  0
   29.1460   11.0160    7.4760 N   0  0  0  0  0  0  0  0  0  0  0  0
   30.6580   11.7320    7.3140 S   0  0  0  0  0  6  0  0  0  0  0  0
   30.6060   12.4960    6.0820 O   0  0  0  0  0  0  0  0  0  0  0  0
   31.6210   10.6700    7.5280 O   0  0  0  0  0  0  0  0  0  0  0  0
   30.7400   12.8610    8.6800 C   0  0  0  0  0  0  0  0  0  0  0  0
   31.4340   12.4890    9.8350 C   0  0  0  0  0  0  0  0  0  0  0  0
   31.4720   13.3630   10.9200 C   0  0  0  0  0  0  0  0  0  0  0  0
   30.8130   14.5930   10.8530 C   0  0  0  0  0  0  0  0  0  0  0  0
   30.1030   14.9670    9.7000 C   0  0  0  0  0  0  0  0  0  0  0  0
   29.4210   16.3200    9.6300 C   0  0  0  0  0  0  0  0  0  0  0  0
   27.9730   16.1780    9.8370 C   0  0  0  0  0  0  0  0  0  0  0  0
   26.8160   15.9140   10.0130 C   0  0  0  0  0  0  0  0  0  0  0  0
   25.4540   15.7380   10.4050 C   0  0  0  0  0  0  0  0  0  0  0  0
   24.5160   15.1030    9.5870 C   0  0  0  0  0  0  0  0  0  0  0  0
   23.1700   14.9900    9.9950 C   0  0  0  0  0  0  0  0  0  0  0  0
   22.7470   15.5160   11.2210 C   0  0  0  0  0  0  0  0  0  0  0  0
   23.6980   16.1310   12.0110 C   0  0  0  0  0  0  0  0  0  0  0  0
   25.0300   16.2380   11.6250 C   0  0  0  0  0  0  0  0  0  0  0  0
   25.8110   16.9590   12.6670 C   0  0  0  0  0  0  0  0  0  0  0  0
   24.8160   17.2140   13.7000 N   0  0  0  0  0  0  0  0  0  0  0  0
   25.0360   18.1850   14.7700 C   0  0  1  0  0  0  0  0  0  0  0  0
   26.1000   17.6900   15.7490 C   0  0  0  0  0  0  0  0  0  0  0  0
   26.3850   18.7590   16.7870 C   0  0  0  0  0  0  0  0  0  0  0  0
   26.8640   20.0080   16.0920 C   0  0  0  0  0  0  0  0  0  0  0  0
   27.8820   20.5980   16.4370 O   0  0  0  0  0  0  0  0  0  0  0  0
   26.1000   20.4160   15.0280 N   0  0  0  0  0  0  0  0  0  0  0  0
   25.4290   19.5590   14.1850 C   0  0  0  0  0  0  0  0  0  0  0  0
   25.1740   19.8930   13.0280 O   0  0  0  0  0  0  0  0  0  0  0  0
   23.5490   16.7990   13.3120 C   0  0  0  0  0  0  0  0  0  0  0  0
   22.4980   16.9490   13.9050 O   0  0  0  0  0  0  0  0  0  0  0  0
   30.0730   14.0900    8.6070 C   0  0  0  0  0  0  0  0  0  0  0  0
   28.9270    9.6770    7.4230 C   0  0  0  0  0  0  0  0  0  0  0  0
   27.6350    9.4190    7.3730 N   0  0  0  0  0  0  0  0  0  0  0  0
   24.7464    9.1845    8.6779 H   0  0  0  0  0  0  0  0  0  0  0  0
   23.8606    9.4192    7.1330 H   0  0  0  0  0  0  0  0  0  0  0  0
   25.4708    8.6230    7.1330 H   0  0  0  0  0  0  0  0  0  0  0  0
   25.1967   11.1884    6.4701 H   0  0  0  0  0  0  0  0  0  0  0  0
   25.2297   11.3910    8.2753 H   0  0  0  0  0  0  0  0  0  0  0  0
   27.7663   12.7512    7.4330 H   0  0  0  0  0  0  0  0  0  0  0  0
   31.9450   11.5163    9.8870 H   0  0  0  0  0  0  0  0  0  0  0  0
   32.0219   13.0838   11.8308 H   0  0  0  0  0  0  0  0  0  0  0  0
   30.8505   15.2770   11.7136 H   0  0  0  0  0  0  0  0  0  0  0  0
   29.8357   16.9752   10.4103 H   0  0  0  0  0  0  0  0  0  0  0  0
   29.5971   16.7560    8.6356 H   0  0  0  0  0  0  0  0  0  0  0  0
   24.8292   14.6880    8.6176 H   0  0  0  0  0  0  0  0  0  0  0  0
   22.4447   14.4826    9.3419 H   0  0  0  0  0  0  0  0  0  0  0  0
   21.6977   15.4424   11.5428 H   0  0  0  0  0  0  0  0  0  0  0  0
   26.6298   16.3333   13.0518 H   0  0  0  0  0  0  0  0  0  0  0  0
   26.2938   17.8739   12.2931 H   0  0  0  0  0  0  0  0  0  0  0  0
   24.0930   18.3011   15.3243 H   0  0  0  0  0  0  0  0  0  0  0  0
   25.7382   16.7809   16.2517 H   0  0  0  0  0  0  0  0  0  0  0  0
   27.0245   17.4668   15.1962 H   0  0  0  0  0  0  0  0  0  0  0  0
   25.4660   18.9802   17.3495 H   0  0  0  0  0  0  0  0  0  0  0  0
   27.1591   18.4025   17.4824 H   0  0  0  0  0  0  0  0  0  0  0  0
   26.0236   21.4274   14.8486 H   0  0  0  0  0  0  0  0  0  0  0  0
   29.5264   14.3668    7.6934 H   0  0  0  0  0  0  0  0  0  0  0  0
   29.7183    8.9129    7.4219 H   0  0  0  0  0  0  0  0  0  0  0  0
  1  2  1  0
  2  3  1  0
  3  4  2  0
  4  5  1  0
  5  6  1  0
  6  7  2  0
  6  8  2  0
  6  9  1  0
  9 10  2  0
 10 11  1  0
 11 12  2  0
 12 13  1  0
 13 14  1  0
 14 15  1  0
 15 16  3  0
 16 17  1  0
 17 18  2  0
 18 19  1  0
 19 20  2  0
 20 21  1  0
 21 22  2  0
 22 23  1  0
 23 24  1  0
 24 25  1  0
 25 26  1  0
 26 27  1  0
 27 28  1  0
 28 29  2  0
 28 30  1  0
 30 31  1  0
 31 32  2  0
 24 33  1  0
 33 34  2  0
 13 35  2  0
  5 36  1  0
 36 37  2  0
 37  3  1  0
 35  9  1  0
 22 17  1  0
 31 25  1  0
 33 21  1  0
  1 38  1  0
  1 39  1  0
  1 40  1  0
  2 41  1  0
  2 42  1  0
  4 43  1  0
 10 44  1  0
 11 45  1  0
 12 46  1  0
 14 47  1  0
 14 48  1  0
 18 49  1  0
 19 50  1  0
 20 51  1  0
 23 52  1  0
 23 53  1  0
 25 54  1  1
 26 55  1  0
 26 56  1  0
 27 57  1  0
 27 58  1  0
 30 59  1  0
 35 60  1  0
 36 61  1  0
M  END
>  <meeko>  (18) 
{"is_sidechain": [true], "free_energy": -15.57, "intermolecular_energy": 0.0, "internal_energy": -15.57, "cluster_size": 18, "cluster_id": 1, "rank_in_cluster": 1}

>  <_RMSD_MCS_to_ref>  (18) 
0.5932332312561954

$$$$
ligand
     RDKit          3D

 62 67  0  0  0  0  0  0  0  0999 V2000
   24.8540    9.4020    7.6050 C   0  0  0  0  0  0  0  0  0  0  0  0
   25.5230   10.7550    7.4270 C   0  0  0  0  0  0  0  0  0  0  0  0
   26.9910   10.6330    7.2180 C   0  0  0  0  0  0  0  0  0  0  0  0
   27.7310   10.8800    6.0780 C   0  0  0  0  0  0  0  0  0  0  0  0
   29.0130   10.5710    6.4350 N   0  0  0  0  0  0  0  0  0  0  0  0
   30.3960   10.9060    5.5310 S   0  0  0  0  0  6  0  0  0  0  0  0
   30.1630   10.2570    4.2550 O   0  0  0  0  0  0  0  0  0  0  0  0
   31.4970   10.5220    6.3940 O   0  0  0  0  0  0  0  0  0  0  0  0
   30.4070   12.5220    5.3230 O   0  0  0  0  0  0  0  0  0  0  0  0
   29.2730   13.2910    5.4140 C   0  0  0  0  0  0  0  0  0  0  0  0
   28.7250   13.6740    4.1910 C   0  0  0  0  0  0  0  0  0  0  0  0
   27.5730   14.4570    4.1560 C   0  0  0  0  0  0  0  0  0  0  0  0
   26.9630   14.8630    5.3520 C   0  0  0  0  0  0  0  0  0  0  0  0
   25.8050   15.6450    5.3610 C   0  0  0  0  0  0  0  0  0  0  0  0
   25.2370   16.0240    6.5740 C   0  0  0  0  0  0  0  0  0  0  0  0
   25.8390   15.6170    7.7610 C   0  0  0  0  0  0  0  0  0  0  0  0
   25.3090   15.9680    9.0970 C   0  0  0  0  0  0  0  0  0  0  0  0
   24.0980   15.4140    9.5900 C   0  0  0  0  0  0  0  0  0  0  0  0
   23.5940   15.7430   10.8550 C   0  0  0  0  0  0  0  0  0  0  0  0
   24.3160   16.6410   11.6120 C   0  0  0  0  0  0  0  0  0  0  0  0
   25.5010   17.2120   11.1640 C   0  0  0  0  0  0  0  0  0  0  0  0
   26.0060   16.8870    9.9160 C   0  0  0  0  0  0  0  0  0  0  0  0
   26.0540   18.1230   12.2070 C   0  0  0  0  0  0  0  0  0  0  0  0
   25.0190   18.1010   13.2330 N   0  0  0  0  0  0  0  0  0  0  0  0
   25.2380   18.6980   14.5440 C   0  0  1  0  0  0  0  0  0  0  0  0
   26.3020   17.9830   15.3760 C   0  0  0  0  0  0  0  0  0  0  0  0
   26.4060   18.6460   16.7410 C   0  0  0  0  0  0  0  0  0  0  0  0
   26.7110   20.1200   16.6110 C   0  0  0  0  0  0  0  0  0  0  0  0
   27.2430   20.7600   17.5140 O   0  0  0  0  0  0  0  0  0  0  0  0
   26.2890   20.7380   15.4610 N   0  0  0  0  0  0  0  0  0  0  0  0
   25.5610   20.1960   14.4260 C   0  0  0  0  0  0  0  0  0  0  0  0
   25.1230   20.9170   13.5320 O   0  0  0  0  0  0  0  0  0  0  0  0
   24.0340   17.1630   12.9530 C   0  0  0  0  0  0  0  0  0  0  0  0
   23.1120   16.8010   13.6570 O   0  0  0  0  0  0  0  0  0  0  0  0
   26.9590   14.8480    7.7610 N   0  0  0  0  0  0  0  0  0  0  0  0
   27.5110   14.4820    6.5920 C   0  0  0  0  0  0  0  0  0  0  0  0
   28.6610   13.7010    6.6000 C   0  0  0  0  0  0  0  0  0  0  0  0
   29.0380   10.2400    7.7520 C   0  0  0  0  0  0  0  0  0  0  0  0
   27.8200   10.2430    8.2530 N   0  0  0  0  0  0  0  0  0  0  0  0
   24.7464    9.1845    8.6779 H   0  0  0  0  0  0  0  0  0  0  0  0
   23.8606    9.4192    7.1330 H   0  0  0  0  0  0  0  0  0  0  0  0
   25.4708    8.6230    7.1330 H   0  0  0  0  0  0  0  0  0  0  0  0
   25.0813   11.2564    6.5532 H   0  0  0  0  0  0  0  0  0  0  0  0
   25.3600   11.3359    8.3468 H   0  0  0  0  0  0  0  0  0  0  0  0
   27.3701   11.2429    5.1043 H   0  0  0  0  0  0  0  0  0  0  0  0
   29.2027   13.3576    3.2520 H   0  0  0  0  0  0  0  0  0  0  0  0
   27.1416   14.7570    3.1896 H   0  0  0  0  0  0  0  0  0  0  0  0
   25.3440   15.9599    4.4132 H   0  0  0  0  0  0  0  0  0  0  0  0
   24.3241   16.6373    6.5941 H   0  0  0  0  0  0  0  0  0  0  0  0
   23.5394   14.7059    8.9603 H   0  0  0  0  0  0  0  0  0  0  0  0
   22.6585   15.3020   11.2297 H   0  0  0  0  0  0  0  0  0  0  0  0
   26.9439   17.3410    9.5636 H   0  0  0  0  0  0  0  0  0  0  0  0
   27.0092   17.7437   12.5990 H   0  0  0  0  0  0  0  0  0  0  0  0
   26.2751   19.1330   11.8316 H   0  0  0  0  0  0  0  0  0  0  0  0
   24.2888   18.5761   15.0865 H   0  0  0  0  0  0  0  0  0  0  0  0
   26.0213   16.9269   15.5015 H   0  0  0  0  0  0  0  0  0  0  0  0
   27.2728   18.0450   14.8625 H   0  0  0  0  0  0  0  0  0  0  0  0
   25.4513   18.5228   17.2733 H   0  0  0  0  0  0  0  0  0  0  0  0
   27.2255   18.1687   17.2984 H   0  0  0  0  0  0  0  0  0  0  0  0
   26.5489   21.7295   15.3596 H   0  0  0  0  0  0  0  0  0  0  0  0
   29.0989   13.3991    7.5629 H   0  0  0  0  0  0  0  0  0  0  0  0
   29.9489   10.0024    8.3211 H   0  0  0  0  0  0  0  0  0  0  0  0
  1  2  1  0
  2  3  1  0
  3  4  2  0
  4  5  1  0
  5  6  1  0
  6  7  2  0
  6  8  2  0
  6  9  1  0
  9 10  1  0
 10 11  2  0
 11 12  1  0
 12 13  2  0
 13 14  1  0
 14 15  2  0
 15 16  1  0
 16 17  1  0
 17 18  2  0
 18 19  1  0
 19 20  2  0
 20 21  1  0
 21 22  2  0
 21 23  1  0
 23 24  1  0
 24 25  1  0
 25 26  1  0
 26 27  1  0
 27 28  1  0
 28 29  2  0
 28 30  1  0
 30 31  1  0
 31 32  2  0
 24 33  1  0
 33 34  2  0
 16 35  2  0
 35 36  1  0
 36 37  2  0
  5 38  1  0
 38 39  2  0
 39  3  1  0
 37 10  1  0
 36 13  1  0
 22 17  1  0
 31 25  1  0
 33 20  1  0
  1 40  1  0
  1 41  1  0
  1 42  1  0
  2 43  1  0
  2 44  1  0
  4 45  1  0
 11 46  1  0
 12 47  1  0
 14 48  1  0
 15 49  1  0
 18 50  1  0
 19 51  1  0
 22 52  1  0
 23 53  1  0
 23 54  1  0
 25 55  1  1
 26 56  1  0
 26 57  1  0
 27 58  1  0
 27 59  1  0
 30 60  1  0
 37 61  1  0
 38 62  1  0
M  END
>  <meeko>  (19) 
{"is_sidechain": [true], "free_energy": -15.52, "intermolecular_energy": 0.0, "internal_energy": -15.52, "cluster_size": 18, "cluster_id": 1, "rank_in_cluster": 1}

>  <_RMSD_MCS_to_ref>  (19) 
0.4879221249338873

$$$$
ligand
     RDKit          3D

 59 63  0  0  0  0  0  0  0  0999 V2000
   24.8540    9.4020    7.6050 C   0  0  0  0  0  0  0  0  0  0  0  0
   25.5230   10.7550    7.4270 C   0  0  0  0  0  0  0  0  0  0  0  0
   27.0020   10.6720    7.5720 C   0  0  0  0  0  0  0  0  0  0  0  0
   27.9280   11.6950    7.6180 C   0  0  0  0  0  0  0  0  0  0  0  0
   29.1280   11.0560    7.7570 N   0  0  0  0  0  0  0  0  0  0  0  0
   30.6460   11.7710    7.6480 S   0  0  0  0  0  6  0  0  0  0  0  0
   31.5220   10.9400    8.4550 O   0  0  0  0  0  0  0  0  0  0  0  0
   30.8770   11.9980    6.2340 O   0  0  0  0  0  0  0  0  0  0  0  0
   30.4660   13.3380    8.4520 C   0  0  0  0  0  0  0  0  0  0  0  0
   31.5690   14.1470    8.6530 C   0  0  0  0  0  0  0  0  0  0  0  0
   31.3530   15.3460    9.3180 C   0  0  0  0  0  0  0  0  0  0  0  0
   30.0640   15.6760    9.7490 C   0  0  0  0  0  0  0  0  0  0  0  0
   29.0200   14.7970    9.4970 C   0  0  0  0  0  0  0  0  0  0  0  0
   27.6960   15.0010    9.8830 N   0  0  0  0  0  0  0  0  0  0  0  0
   27.0410   16.1920   10.0770 C   0  0  0  0  0  0  0  0  0  0  0  0
   27.5060   17.3110    9.8920 O   0  0  0  0  0  0  0  0  0  0  0  0
   25.6250   16.0740   10.5280 C   0  0  0  0  0  0  0  0  0  0  0  0
   24.6420   15.4360    9.7470 C   0  0  0  0  0  0  0  0  0  0  0  0
   23.3070   15.3530   10.1880 C   0  0  0  0  0  0  0  0  0  0  0  0
   22.9300   15.8980   11.4160 C   0  0  0  0  0  0  0  0  0  0  0  0
   23.9170   16.5000   12.1740 C   0  0  0  0  0  0  0  0  0  0  0  0
   25.2460   16.5900   11.7600 C   0  0  0  0  0  0  0  0  0  0  0  0
   26.0500   17.3060   12.7960 C   0  0  0  0  0  0  0  0  0  0  0  0
   25.0700   17.5540   13.8470 N   0  0  0  0  0  0  0  0  0  0  0  0
   25.3050   18.4670   14.9590 C   0  0  1  0  0  0  0  0  0  0  0  0
   26.2780   17.8990   15.9870 C   0  0  0  0  0  0  0  0  0  0  0  0
   26.4050   18.8690   17.1520 C   0  0  0  0  0  0  0  0  0  0  0  0
   26.8240   20.2420   16.6770 C   0  0  0  0  0  0  0  0  0  0  0  0
   27.5560   20.9700   17.3390 O   0  0  0  0  0  0  0  0  0  0  0  0
   26.3240   20.6520   15.4670 N   0  0  0  0  0  0  0  0  0  0  0  0
   25.8210   19.8340   14.4800 C   0  0  0  0  0  0  0  0  0  0  0  0
   25.8080   20.2120   13.3110 O   0  0  0  0  0  0  0  0  0  0  0  0
   23.7960   17.1530   13.4810 C   0  0  0  0  0  0  0  0  0  0  0  0
   22.7560   17.3020   14.0940 O   0  0  0  0  0  0  0  0  0  0  0  0
   29.2030   13.6280    8.8530 N   0  0  0  0  0  0  0  0  0  0  0  0
   28.9170    9.7130    7.7600 C   0  0  0  0  0  0  0  0  0  0  0  0
   27.6310    9.4460    7.6580 N   0  0  0  0  0  0  0  0  0  0  0  0
   24.7464    9.1845    8.6779 H   0  0  0  0  0  0  0  0  0  0  0  0
   23.8606    9.4192    7.1330 H   0  0  0  0  0  0  0  0  0  0  0  0
   25.4708    8.6230    7.1330 H   0  0  0  0  0  0  0  0  0  0  0  0
   25.2860   11.1386    6.4236 H   0  0  0  0  0  0  0  0  0  0  0  0
   25.1430   11.4264    8.2111 H   0  0  0  0  0  0  0  0  0  0  0  0
   27.7423   12.7775    7.5567 H   0  0  0  0  0  0  0  0  0  0  0  0
   32.5698   13.8544    8.3027 H   0  0  0  0  0  0  0  0  0  0  0  0
   32.1913   16.0332    9.5051 H   0  0  0  0  0  0  0  0  0  0  0  0
   29.8799   16.6209   10.2813 H   0  0  0  0  0  0  0  0  0  0  0  0
   27.1382   14.1500   10.0430 H   0  0  0  0  0  0  0  0  0  0  0  0
   24.9210   14.9960    8.7782 H   0  0  0  0  0  0  0  0  0  0  0  0
   22.5550   14.8542    9.5589 H   0  0  0  0  0  0  0  0  0  0  0  0
   21.8886   15.8505   11.7670 H   0  0  0  0  0  0  0  0  0  0  0  0
   26.8746   16.6771   13.1628 H   0  0  0  0  0  0  0  0  0  0  0  0
   26.5291   18.2223   12.4207 H   0  0  0  0  0  0  0  0  0  0  0  0
   24.3254   18.5992   15.4417 H   0  0  0  0  0  0  0  0  0  0  0  0
   25.9019   16.9324   16.3535 H   0  0  0  0  0  0  0  0  0  0  0  0
   27.2634   17.7546   15.5199 H   0  0  0  0  0  0  0  0  0  0  0  0
   25.4334   18.9467   17.6618 H   0  0  0  0  0  0  0  0  0  0  0  0
   27.1745   18.4885   17.8398 H   0  0  0  0  0  0  0  0  0  0  0  0
   26.3249   21.6648   15.2796 H   0  0  0  0  0  0  0  0  0  0  0  0
   29.7100    8.9546    7.8369 H   0  0  0  0  0  0  0  0  0  0  0  0
  1  2  1  0
  2  3  1  0
  3  4  2  0
  4  5  1  0
  5  6  1  0
  6  7  2  0
  6  8  2  0
  6  9  1  0
  9 10  2  0
 10 11  1  0
 11 12  2  0
 12 13  1  0
 13 14  1  0
 14 15  1  0
 15 16  2  0
 15 17  1  0
 17 18  2  0
 18 19  1  0
 19 20  2  0
 20 21  1  0
 21 22  2  0
 22 23  1  0
 23 24  1  0
 24 25  1  0
 25 26  1  0
 26 27  1  0
 27 28  1  0
 28 29  2  0
 28 30  1  0
 30 31  1  0
 31 32  2  0
 24 33  1  0
 33 34  2  0
 13 35  2  0
  5 36  1  0
 36 37  2  0
 37  3  1  0
 35  9  1  0
 22 17  1  0
 31 25  1  0
 33 21  1  0
  1 38  1  0
  1 39  1  0
  1 40  1  0
  2 41  1  0
  2 42  1  0
  4 43  1  0
 10 44  1  0
 11 45  1  0
 12 46  1  0
 14 47  1  0
 18 48  1  0
 19 49  1  0
 20 50  1  0
 23 51  1  0
 23 52  1  0
 25 53  1  1
 26 54  1  0
 26 55  1  0
 27 56  1  0
 27 57  1  0
 30 58  1  0
 36 59  1  0
M  END
>  <meeko>  (20) 
{"is_sidechain": [true], "free_energy": -15.47, "intermolecular_energy": 0.0, "internal_energy": -15.47, "cluster_size": 20, "cluster_id": 1, "rank_in_cluster": 1}

>  <_RMSD_MCS_to_ref>  (20) 
0.6739462556877623

$$$$
ligand
     RDKit          3D

 62 67  0  0  0  0  0  0  0  0999 V2000
   24.8540    9.4020    7.6050 C   0  0  0  0  0  0  0  0  0  0  0  0
   25.5230   10.7550    7.4270 C   0  0  0  0  0  0  0  0  0  0  0  0
   27.0020   10.6410    7.3140 C   0  0  0  0  0  0  0  0  0  0  0  0
   27.8690   11.3450    6.5010 C   0  0  0  0  0  0  0  0  0  0  0  0
   29.0960   10.8110    6.7770 N   0  0  0  0  0  0  0  0  0  0  0  0
   30.5770   11.4340    6.2690 S   0  0  0  0  0  6  0  0  0  0  0  0
   30.2340   12.5080    5.3560 O   0  0  0  0  0  0  0  0  0  0  0  0
   31.3370   10.2780    5.8330 O   0  0  0  0  0  0  0  0  0  0  0  0
   31.2800   12.0650    7.5960 O   0  0  0  0  0  0  0  0  0  0  0  0
   30.8340   13.2230    8.1720 C   0  0  0  0  0  0  0  0  0  0  0  0
   31.5800   14.3650    8.4150 C   0  0  0  0  0  0  0  0  0  0  0  0
   31.0780   15.4850    8.9910 N   0  0  0  0  0  0  0  0  0  0  0  0
   29.7830   15.4930    9.3490 C   0  0  0  0  0  0  0  0  0  0  0  0
   29.2430   16.6240    9.9410 C   0  0  0  0  0  0  0  0  0  0  0  0
   27.8980   16.6810   10.3270 C   0  0  0  0  0  0  0  0  0  0  0  0
   27.0500   15.5880   10.1240 C   0  0  0  0  0  0  0  0  0  0  0  0
   25.6400   15.6460   10.5160 C   0  0  0  0  0  0  0  0  0  0  0  0
   24.6570   14.9320    9.7980 C   0  0  0  0  0  0  0  0  0  0  0  0
   23.2970   14.9720   10.1600 C   0  0  0  0  0  0  0  0  0  0  0  0
   22.8770   15.7260   11.2540 C   0  0  0  0  0  0  0  0  0  0  0  0
   23.8470   16.4210   11.9500 C   0  0  0  0  0  0  0  0  0  0  0  0
   25.1990   16.3920   11.6050 C   0  0  0  0  0  0  0  0  0  0  0  0
   25.9830   17.2240   12.5720 C   0  0  0  0  0  0  0  0  0  0  0  0
   24.9470   17.7560   13.4490 N   0  0  0  0  0  0  0  0  0  0  0  0
   25.2210   18.4880   14.6830 C   0  0  1  0  0  0  0  0  0  0  0  0
   26.3070   17.7880   15.5020 C   0  0  0  0  0  0  0  0  0  0  0  0
   26.4820   18.4970   16.8350 C   0  0  0  0  0  0  0  0  0  0  0  0
   26.7940   19.9610   16.6400 C   0  0  0  0  0  0  0  0  0  0  0  0
   27.4970   20.5940   17.4210 O   0  0  0  0  0  0  0  0  0  0  0  0
   26.2200   20.5700   15.5520 N   0  0  0  0  0  0  0  0  0  0  0  0
   25.6000   19.9650   14.4840 C   0  0  0  0  0  0  0  0  0  0  0  0
   25.3510   20.6130   13.4700 O   0  0  0  0  0  0  0  0  0  0  0  0
   23.6910   17.2620   13.1410 C   0  0  0  0  0  0  0  0  0  0  0  0
   22.6490   17.4460   13.7390 O   0  0  0  0  0  0  0  0  0  0  0  0
   27.5900   14.4360    9.5320 C   0  0  0  0  0  0  0  0  0  0  0  0
   28.9410   14.3830    9.1430 C   0  0  0  0  0  0  0  0  0  0  0  0
   29.4940   13.2410    8.5450 C   0  0  0  0  0  0  0  0  0  0  0  0
   28.9670    9.8930    7.7700 C   0  0  0  0  0  0  0  0  0  0  0  0
   27.7020    9.7480    8.1030 N   0  0  0  0  0  0  0  0  0  0  0  0
   24.7464    9.1845    8.6779 H   0  0  0  0  0  0  0  0  0  0  0  0
   23.8606    9.4192    7.1330 H   0  0  0  0  0  0  0  0  0  0  0  0
   25.4708    8.6230    7.1330 H   0  0  0  0  0  0  0  0  0  0  0  0
   25.1332   11.2251    6.5121 H   0  0  0  0  0  0  0  0  0  0  0  0
   25.2984   11.3620    8.3165 H   0  0  0  0  0  0  0  0  0  0  0  0
   27.6269   12.1514    5.7931 H   0  0  0  0  0  0  0  0  0  0  0  0
   32.6408   14.3628    8.1238 H   0  0  0  0  0  0  0  0  0  0  0  0
   29.8873   17.4990   10.1120 H   0  0  0  0  0  0  0  0  0  0  0  0
   27.5045   17.5954   10.7949 H   0  0  0  0  0  0  0  0  0  0  0  0
   24.9619   14.3273    8.9312 H   0  0  0  0  0  0  0  0  0  0  0  0
   22.5598   14.4033    9.5743 H   0  0  0  0  0  0  0  0  0  0  0  0
   21.8185   15.7661   11.5507 H   0  0  0  0  0  0  0  0  0  0  0  0
   26.7010   16.6085   13.1339 H   0  0  0  0  0  0  0  0  0  0  0  0
   26.5878   18.0043   12.0868 H   0  0  0  0  0  0  0  0  0  0  0  0
   24.2657   18.4858   15.2283 H   0  0  0  0  0  0  0  0  0  0  0  0
   26.0140   16.7428   15.6797 H   0  0  0  0  0  0  0  0  0  0  0  0
   27.2564   17.8169   14.9472 H   0  0  0  0  0  0  0  0  0  0  0  0
   25.5526   18.4028   17.4158 H   0  0  0  0  0  0  0  0  0  0  0  0
   27.3231   18.0306   17.3689 H   0  0  0  0  0  0  0  0  0  0  0  0
   26.2581   21.5991   15.5334 H   0  0  0  0  0  0  0  0  0  0  0  0
   26.9459   13.5593    9.3693 H   0  0  0  0  0  0  0  0  0  0  0  0
   28.8651   12.3556    8.3702 H   0  0  0  0  0  0  0  0  0  0  0  0
   29.8031    9.3471    8.2314 H   0  0  0  0  0  0  0  0  0  0  0  0
  1  2  1  0
  2  3  1  0
  3  4  2  0
  4  5  1  0
  5  6  1  0
  6  7  2  0
  6  8  2  0
  6  9  1  0
  9 10  1  0
 10 11  2  0
 11 12  1  0
 12 13  2  0
 13 14  1  0
 14 15  2  0
 15 16  1  0
 16 17  1  0
 17 18  2  0
 18 19  1  0
 19 20  2  0
 20 21  1  0
 21 22  2  0
 22 23  1  0
 23 24  1  0
 24 25  1  0
 25 26  1  0
 26 27  1  0
 27 28  1  0
 28 29  2  0
 28 30  1  0
 30 31  1  0
 31 32  2  0
 24 33  1  0
 33 34  2  0
 16 35  2  0
 35 36  1  0
 36 37  2  0
  5 38  1  0
 38 39  2  0
 39  3  1  0
 37 10  1  0
 36 13  1  0
 22 17  1  0
 31 25  1  0
 33 21  1  0
  1 40  1  0
  1 41  1  0
  1 42  1  0
  2 43  1  0
  2 44  1  0
  4 45  1  0
 11 46  1  0
 14 47  1  0
 15 48  1  0
 18 49  1  0
 19 50  1  0
 20 51  1  0
 23 52  1  0
 23 53  1  0
 25 54  1  1
 26 55  1  0
 26 56  1  0
 27 57  1  0
 27 58  1  0
 30 59  1  0
 35 60  1  0
 37 61  1  0
 38 62  1  0
M  END
>  <meeko>  (21) 
{"is_sidechain": [true], "free_energy": -15.47, "intermolecular_energy": 0.0, "internal_energy": -15.47, "cluster_size": 18, "cluster_id": 1, "rank_in_cluster": 1}

>  <_RMSD_MCS_to_ref>  (21) 
0.41964138128750844

$$$$
ligand
     RDKit          3D

 60 65  0  0  0  0  0  0  0  0999 V2000
   24.8540    9.4020    7.6050 C   0  0  0  0  0  0  0  0  0  0  0  0
   25.5230   10.7550    7.4270 C   0  0  0  0  0  0  0  0  0  0  0  0
   24.7970   11.6180    6.4560 C   0  0  0  0  0  0  0  0  0  0  0  0
   25.2640   12.1960    5.2920 C   0  0  0  0  0  0  0  0  0  0  0  0
   24.1890   12.8810    4.8010 N   0  0  0  0  0  0  0  0  0  0  0  0
   24.2280   14.0560    3.5870 S   0  0  0  0  0  6  0  0  0  0  0  0
   25.2750   13.6400    2.6700 O   0  0  0  0  0  0  0  0  0  0  0  0
   22.8490   14.1620    3.1460 O   0  0  0  0  0  0  0  0  0  0  0  0
   24.6520   15.4820    4.2710 O   0  0  0  0  0  0  0  0  0  0  0  0
   25.5330   15.4660    5.3290 C   0  0  0  0  0  0  0  0  0  0  0  0
   25.0600   15.8450    6.5880 C   0  0  0  0  0  0  0  0  0  0  0  0
   25.8830   15.8060    7.7210 C   0  0  0  0  0  0  0  0  0  0  0  0
   25.3420   16.1340    9.0510 C   0  0  0  0  0  0  0  0  0  0  0  0
   24.1060   15.5740    9.4800 C   0  0  0  0  0  0  0  0  0  0  0  0
   23.5660   15.8570   10.7400 C   0  0  0  0  0  0  0  0  0  0  0  0
   24.2820   16.7070   11.5550 C   0  0  0  0  0  0  0  0  0  0  0  0
   25.4840   17.2580   11.1560 C   0  0  0  0  0  0  0  0  0  0  0  0
   26.0410   16.9940    9.9190 C   0  0  0  0  0  0  0  0  0  0  0  0
   25.9720   18.0900   12.2520 C   0  0  0  0  0  0  0  0  0  0  0  0
   27.0240   18.6980   12.2360 O   0  0  0  0  0  0  0  0  0  0  0  0
   25.0260   18.0340   13.2410 N   0  0  0  0  0  0  0  0  0  0  0  0
   25.2290   18.6200   14.5570 C   0  0  1  0  0  0  0  0  0  0  0  0
   26.2980   17.9240   15.3960 C   0  0  0  0  0  0  0  0  0  0  0  0
   26.3870   18.6040   16.7550 C   0  0  0  0  0  0  0  0  0  0  0  0
   26.6670   20.0820   16.6130 C   0  0  0  0  0  0  0  0  0  0  0  0
   27.2540   20.7250   17.4780 O   0  0  0  0  0  0  0  0  0  0  0  0
   26.1770   20.6950   15.4860 N   0  0  0  0  0  0  0  0  0  0  0  0
   25.5630   20.1070   14.4030 C   0  0  0  0  0  0  0  0  0  0  0  0
   25.2640   20.7770   13.4160 O   0  0  0  0  0  0  0  0  0  0  0  0
   24.0060   17.1850   12.9080 C   0  0  0  0  0  0  0  0  0  0  0  0
   23.0470   16.8400   13.5710 O   0  0  0  0  0  0  0  0  0  0  0  0
   27.2310   15.4240    7.5680 C   0  0  0  0  0  0  0  0  0  0  0  0
   27.7360   15.0700    6.3000 C   0  0  0  0  0  0  0  0  0  0  0  0
   29.0070   14.6450    5.8270 C   0  0  0  0  0  0  0  0  0  0  0  0
   28.8960   14.4130    4.4750 C   0  0  0  0  0  0  0  0  0  0  0  0
   27.6060   14.6870    4.1070 N   0  0  0  0  0  0  0  0  0  0  0  0
   26.8750   15.0940    5.2020 C   0  0  0  0  0  0  0  0  0  0  0  0
   23.1450   12.7410    5.6600 C   0  0  0  0  0  0  0  0  0  0  0  0
   23.4790   11.9710    6.6750 N   0  0  0  0  0  0  0  0  0  0  0  0
   24.7464    9.1845    8.6779 H   0  0  0  0  0  0  0  0  0  0  0  0
   23.8606    9.4192    7.1330 H   0  0  0  0  0  0  0  0  0  0  0  0
   25.4708    8.6230    7.1330 H   0  0  0  0  0  0  0  0  0  0  0  0
   25.5538   11.2657    8.4008 H   0  0  0  0  0  0  0  0  0  0  0  0
   26.5355   10.5818    7.0334 H   0  0  0  0  0  0  0  0  0  0  0  0
   26.2723   12.1217    4.8587 H   0  0  0  0  0  0  0  0  0  0  0  0
   24.0179   16.1816    6.6918 H   0  0  0  0  0  0  0  0  0  0  0  0
   23.5602   14.9004    8.8030 H   0  0  0  0  0  0  0  0  0  0  0  0
   22.6108   15.4196   11.0658 H   0  0  0  0  0  0  0  0  0  0  0  0
   27.0007   17.4420    9.6220 H   0  0  0  0  0  0  0  0  0  0  0  0
   24.2868   18.4844   15.1083 H   0  0  0  0  0  0  0  0  0  0  0  0
   26.0292   16.8659   15.5307 H   0  0  0  0  0  0  0  0  0  0  0  0
   27.2700   17.9891   14.8851 H   0  0  0  0  0  0  0  0  0  0  0  0
   25.4330   18.4696   17.2859 H   0  0  0  0  0  0  0  0  0  0  0  0
   27.2140   18.1469   17.3181 H   0  0  0  0  0  0  0  0  0  0  0  0
   26.2815   21.7189   15.4461 H   0  0  0  0  0  0  0  0  0  0  0  0
   27.8946   15.4018    8.4450 H   0  0  0  0  0  0  0  0  0  0  0  0
   29.9168   14.5233    6.4332 H   0  0  0  0  0  0  0  0  0  0  0  0
   29.7006   14.0687    3.8086 H   0  0  0  0  0  0  0  0  0  0  0  0
   27.2354   14.6013    3.1498 H   0  0  0  0  0  0  0  0  0  0  0  0
   22.1574   13.2065    5.5260 H   0  0  0  0  0  0  0  0  0  0  0  0
  1  2  1  0
  2  3  1  0
  3  4  2  0
  4  5  1  0
  5  6  1  0
  6  7  2  0
  6  8  2  0
  6  9  1  0
  9 10  1  0
 10 11  2  0
 11 12  1  0
 12 13  1  0
 13 14  2  0
 14 15  1  0
 15 16  2  0
 16 17  1  0
 17 18  2  0
 17 19  1  0
 19 20  2  0
 19 21  1  0
 21 22  1  0
 22 23  1  0
 23 24  1  0
 24 25  1  0
 25 26  2  0
 25 27  1  0
 27 28  1  0
 28 29  2  0
 21 30  1  0
 30 31  2  0
 12 32  2  0
 32 33  1  0
 33 34  1  0
 34 35  2  0
 35 36  1  0
 36 37  1  0
  5 38  1  0
 38 39  2  0
 39  3  1  0
 37 10  1  0
 18 13  1  0
 28 22  1  0
 37 33  2  0
 30 16  1  0
  1 40  1  0
  1 41  1  0
  1 42  1  0
  2 43  1  0
  2 44  1  0
  4 45  1  0
 11 46  1  0
 14 47  1  0
 15 48  1  0
 18 49  1  0
 22 50  1  1
 23 51  1  0
 23 52  1  0
 24 53  1  0
 24 54  1  0
 27 55  1  0
 32 56  1  0
 34 57  1  0
 35 58  1  0
 36 59  1  0
 38 60  1  0
M  END
>  <meeko>  (22) 
{"is_sidechain": [true], "free_energy": -15.35, "intermolecular_energy": 0.0, "internal_energy": -15.35, "cluster_size": 17, "cluster_id": 1, "rank_in_cluster": 1}

>  <_RMSD_MCS_to_ref>  (22) 
0.4725504088336902

$$$$
ligand
     RDKit          3D

 62 67  0  0  0  0  0  0  0  0999 V2000
   24.8540    9.4020    7.6050 C   0  0  0  0  0  0  0  0  0  0  0  0
   25.5230   10.7550    7.4270 C   0  0  0  0  0  0  0  0  0  0  0  0
   26.9700   10.6280    7.1010 C   0  0  0  0  0  0  0  0  0  0  0  0
   27.6290   10.9550    5.9320 C   0  0  0  0  0  0  0  0  0  0  0  0
   28.9270   10.5990    6.1690 N   0  0  0  0  0  0  0  0  0  0  0  0
   30.2470   10.9870    5.1960 S   0  0  0  0  0  6  0  0  0  0  0  0
   31.3980   10.4580    5.9030 O   0  0  0  0  0  0  0  0  0  0  0  0
   29.8830   10.5170    3.8730 O   0  0  0  0  0  0  0  0  0  0  0  0
   30.3310   12.6140    5.1810 O   0  0  0  0  0  0  0  0  0  0  0  0
   29.2110   13.3980    5.2180 C   0  0  0  0  0  0  0  0  0  0  0  0
   28.5190   13.9030    4.1290 C   0  0  0  0  0  0  0  0  0  0  0  0
   27.4120   14.6780    4.2320 N   0  0  0  0  0  0  0  0  0  0  0  0
   26.9560   14.9790    5.4610 C   0  0  0  0  0  0  0  0  0  0  0  0
   25.8290   15.7730    5.5980 C   0  0  0  0  0  0  0  0  0  0  0  0
   25.3170   16.1130    6.8560 C   0  0  0  0  0  0  0  0  0  0  0  0
   25.9290   15.6560    8.0290 C   0  0  0  0  0  0  0  0  0  0  0  0
   25.3940   16.0090    9.3550 C   0  0  0  0  0  0  0  0  0  0  0  0
   24.0850   15.6150    9.7350 C   0  0  0  0  0  0  0  0  0  0  0  0
   23.5440   15.9400   10.9880 C   0  0  0  0  0  0  0  0  0  0  0  0
   24.3280   16.6620   11.8660 C   0  0  0  0  0  0  0  0  0  0  0  0
   25.6130   17.0490   11.4980 C   0  0  0  0  0  0  0  0  0  0  0  0
   26.1670   16.7460   10.2670 C   0  0  0  0  0  0  0  0  0  0  0  0
   26.2000   17.8000   12.6130 C   0  0  0  0  0  0  0  0  0  0  0  0
   27.2840   18.3480   12.5800 O   0  0  0  0  0  0  0  0  0  0  0  0
   25.2800   17.7640   13.6500 N   0  0  0  0  0  0  0  0  0  0  0  0
   25.3710   18.5780   14.8570 C   0  0  1  0  0  0  0  0  0  0  0  0
   26.3170   18.0100   15.9150 C   0  0  0  0  0  0  0  0  0  0  0  0
   26.2880   18.9000   17.1480 C   0  0  0  0  0  0  0  0  0  0  0  0
   26.6430   20.3270   16.8020 C   0  0  0  0  0  0  0  0  0  0  0  0
   27.0800   21.1120   17.6390 O   0  0  0  0  0  0  0  0  0  0  0  0
   26.3740   20.7370   15.5220 N   0  0  0  0  0  0  0  0  0  0  0  0
   25.7450   20.0300   14.5220 C   0  0  0  0  0  0  0  0  0  0  0  0
   25.4210   20.5900   13.4750 O   0  0  0  0  0  0  0  0  0  0  0  0
   24.0180   17.1640   13.2360 C   0  0  0  0  0  0  0  0  0  0  0  0
   27.0710   14.8520    7.8960 C   0  0  0  0  0  0  0  0  0  0  0  0
   27.5860   14.5140    6.6290 C   0  0  0  0  0  0  0  0  0  0  0  0
   28.7300   13.7140    6.4860 C   0  0  0  0  0  0  0  0  0  0  0  0
   29.0410   10.1610    7.4490 C   0  0  0  0  0  0  0  0  0  0  0  0
   27.8620   10.1450    8.0370 N   0  0  0  0  0  0  0  0  0  0  0  0
   24.7464    9.1845    8.6779 H   0  0  0  0  0  0  0  0  0  0  0  0
   23.8606    9.4192    7.1330 H   0  0  0  0  0  0  0  0  0  0  0  0
   25.4708    8.6230    7.1330 H   0  0  0  0  0  0  0  0  0  0  0  0
   25.0215   11.2934    6.6093 H   0  0  0  0  0  0  0  0  0  0  0  0
   25.4376   11.3018    8.3777 H   0  0  0  0  0  0  0  0  0  0  0  0
   27.2060   11.4000    5.0193 H   0  0  0  0  0  0  0  0  0  0  0  0
   28.8898   13.6607    3.1221 H   0  0  0  0  0  0  0  0  0  0  0  0
   25.3234   16.1459    4.6951 H   0  0  0  0  0  0  0  0  0  0  0  0
   24.4214   16.7481    6.9235 H   0  0  0  0  0  0  0  0  0  0  0  0
   23.4754   15.0367    9.0251 H   0  0  0  0  0  0  0  0  0  0  0  0
   22.5254   15.6289   11.2629 H   0  0  0  0  0  0  0  0  0  0  0  0
   27.1851   17.0734   10.0096 H   0  0  0  0  0  0  0  0  0  0  0  0
   24.3650   18.5585   15.3015 H   0  0  0  0  0  0  0  0  0  0  0  0
   25.9951   16.9942   16.1879 H   0  0  0  0  0  0  0  0  0  0  0  0
   27.3399   17.9735   15.5120 H   0  0  0  0  0  0  0  0  0  0  0  0
   25.2779   18.8772   17.5830 H   0  0  0  0  0  0  0  0  0  0  0  0
   27.0294   18.5219   17.8672 H   0  0  0  0  0  0  0  0  0  0  0  0
   26.6796   21.6900   15.2787 H   0  0  0  0  0  0  0  0  0  0  0  0
   23.7323   16.3393   13.9055 H   0  0  0  0  0  0  0  0  0  0  0  0
   23.1713   17.8657   13.2628 H   0  0  0  0  0  0  0  0  0  0  0  0
   27.5746   14.4778    8.7995 H   0  0  0  0  0  0  0  0  0  0  0  0
   29.2488   13.3351    7.3789 H   0  0  0  0  0  0  0  0  0  0  0  0
   29.9850    9.8616    7.9279 H   0  0  0  0  0  0  0  0  0  0  0  0
  1  2  1  0
  2  3  1  0
  3  4  2  0
  4  5  1  0
  5  6  1  0
  6  7  2  0
  6  8  2  0
  6  9  1  0
  9 10  1  0
 10 11  2  0
 11 12  1  0
 12 13  2  0
 13 14  1  0
 14 15  2  0
 15 16  1  0
 16 17  1  0
 17 18  2  0
 18 19  1  0
 19 20  2  0
 20 21  1  0
 21 22  2  0
 21 23  1  0
 23 24  2  0
 23 25  1  0
 25 26  1  0
 26 27  1  0
 27 28  1  0
 28 29  1  0
 29 30  2  0
 29 31  1  0
 31 32  1  0
 32 33  2  0
 25 34  1  0
 16 35  2  0
 35 36  1  0
 36 37  2  0
  5 38  1  0
 38 39  2  0
 39  3  1  0
 37 10  1  0
 36 13  1  0
 22 17  1  0
 32 26  1  0
 34 20  1  0
  1 40  1  0
  1 41  1  0
  1 42  1  0
  2 43  1  0
  2 44  1  0
  4 45  1  0
 11 46  1  0
 14 47  1  0
 15 48  1  0
 18 49  1  0
 19 50  1  0
 22 51  1  0
 26 52  1  1
 27 53  1  0
 27 54  1  0
 28 55  1  0
 28 56  1  0
 31 57  1  0
 34 58  1  0
 34 59  1  0
 35 60  1  0
 37 61  1  0
 38 62  1  0
M  END
>  <meeko>  (23) 
{"is_sidechain": [true], "free_energy": -15.34, "intermolecular_energy": 0.0, "internal_energy": -15.34, "cluster_size": 17, "cluster_id": 1, "rank_in_cluster": 1}

>  <_RMSD_MCS_to_ref>  (23) 
0.6524979352883458

$$$$
ligand
     RDKit          3D

 61 66  0  0  0  0  0  0  0  0999 V2000
   24.8540    9.4020    7.6050 C   0  0  0  0  0  0  0  0  0  0  0  0
   25.5230   10.7550    7.4270 C   0  0  0  0  0  0  0  0  0  0  0  0
   27.0060   10.6630    7.5100 C   0  0  0  0  0  0  0  0  0  0  0  0
   27.9460   11.6690    7.4030 C   0  0  0  0  0  0  0  0  0  0  0  0
   29.1450   11.0220    7.5190 N   0  0  0  0  0  0  0  0  0  0  0  0
   30.6510   11.7590    7.6990 S   0  0  0  0  0  6  0  0  0  0  0  0
   30.8800   12.4230    6.4290 O   0  0  0  0  0  0  0  0  0  0  0  0
   31.5170   10.6950    8.1720 O   0  0  0  0  0  0  0  0  0  0  0  0
   30.4550   12.8690    8.8700 O   0  0  0  0  0  0  0  0  0  0  0  0
   29.2790   13.4310    9.2100 C   0  0  0  0  0  0  0  0  0  0  0  0
   28.5550   12.8890   10.2450 C   0  0  0  0  0  0  0  0  0  0  0  0
   27.4160   13.6270   10.3900 N   0  0  0  0  0  0  0  0  0  0  0  0
   27.3890   14.6560    9.4680 C   0  0  0  0  0  0  0  0  0  0  0  0
   26.4140   15.6560    9.2690 C   0  0  0  0  0  0  0  0  0  0  0  0
   25.2320   15.7350   10.1210 C   0  0  0  0  0  0  0  0  0  0  0  0
   24.0760   14.9830    9.8350 C   0  0  0  0  0  0  0  0  0  0  0  0
   22.9410   15.0270   10.6670 C   0  0  0  0  0  0  0  0  0  0  0  0
   22.9310   15.8270   11.8090 C   0  0  0  0  0  0  0  0  0  0  0  0
   24.0650   16.5680   12.0710 C   0  0  0  0  0  0  0  0  0  0  0  0
   25.1960   16.5400   11.2550 C   0  0  0  0  0  0  0  0  0  0  0  0
   26.2450   17.4470   11.8110 C   0  0  0  0  0  0  0  0  0  0  0  0
   25.5920   18.0140   12.9840 N   0  0  0  0  0  0  0  0  0  0  0  0
   26.3160   18.7080   14.0410 C   0  0  2  0  0  0  0  0  0  0  0  0
   26.1930   18.0100   15.3920 C   0  0  0  0  0  0  0  0  0  0  0  0
   27.0410   18.7460   16.4190 C   0  0  0  0  0  0  0  0  0  0  0  0
   26.6600   20.2060   16.4980 C   0  0  0  0  0  0  0  0  0  0  0  0
   26.6820   20.8350   17.5510 O   0  0  0  0  0  0  0  0  0  0  0  0
   26.3010   20.8120   15.3210 N   0  0  0  0  0  0  0  0  0  0  0  0
   25.8510   20.1680   14.1910 C   0  0  0  0  0  0  0  0  0  0  0  0
   25.1220   20.7520   13.3910 O   0  0  0  0  0  0  0  0  0  0  0  0
   24.3370   17.4640   13.1990 C   0  0  0  0  0  0  0  0  0  0  0  0
   23.5890   17.6530   14.1380 O   0  0  0  0  0  0  0  0  0  0  0  0
   26.6390   16.5660    8.2260 C   0  0  0  0  0  0  0  0  0  0  0  0
   27.7780   16.4880    7.4340 C   0  0  0  0  0  0  0  0  0  0  0  0
   28.7380   15.4930    7.6590 C   0  0  0  0  0  0  0  0  0  0  0  0
   28.5540   14.5490    8.6940 C   0  0  0  0  0  0  0  0  0  0  0  0
   28.9150    9.7070    7.7700 C   0  0  0  0  0  0  0  0  0  0  0  0
   27.6240    9.4500    7.7450 N   0  0  0  0  0  0  0  0  0  0  0  0
   24.7464    9.1845    8.6779 H   0  0  0  0  0  0  0  0  0  0  0  0
   23.8606    9.4192    7.1330 H   0  0  0  0  0  0  0  0  0  0  0  0
   25.4708    8.6230    7.1330 H   0  0  0  0  0  0  0  0  0  0  0  0
   25.2476   11.1597    6.4419 H   0  0  0  0  0  0  0  0  0  0  0  0
   25.1790   11.4118    8.2395 H   0  0  0  0  0  0  0  0  0  0  0  0
   27.7703   12.7451    7.2576 H   0  0  0  0  0  0  0  0  0  0  0  0
   28.8424   12.0158   10.8490 H   0  0  0  0  0  0  0  0  0  0  0  0
   26.6809   13.4431   11.0876 H   0  0  0  0  0  0  0  0  0  0  0  0
   24.0595   14.3452    8.9390 H   0  0  0  0  0  0  0  0  0  0  0  0
   22.0553   14.4256   10.4142 H   0  0  0  0  0  0  0  0  0  0  0  0
   22.0553   15.8657   12.4735 H   0  0  0  0  0  0  0  0  0  0  0  0
   27.1469   16.8839   12.0929 H   0  0  0  0  0  0  0  0  0  0  0  0
   26.5888   18.2068   11.0937 H   0  0  0  0  0  0  0  0  0  0  0  0
   27.3715   18.6906   13.7319 H   0  0  0  0  0  0  0  0  0  0  0  0
   25.1410   18.0147   15.7133 H   0  0  0  0  0  0  0  0  0  0  0  0
   26.5430   16.9710   15.3025 H   0  0  0  0  0  0  0  0  0  0  0  0
   26.8921   18.2826   17.4055 H   0  0  0  0  0  0  0  0  0  0  0  0
   28.0954   18.6776   16.1130 H   0  0  0  0  0  0  0  0  0  0  0  0
   26.3746   21.8385   15.2792 H   0  0  0  0  0  0  0  0  0  0  0  0
   25.8996   17.3567    8.0311 H   0  0  0  0  0  0  0  0  0  0  0  0
   27.9274   17.2150    6.6221 H   0  0  0  0  0  0  0  0  0  0  0  0
   29.6378   15.4465    7.0280 H   0  0  0  0  0  0  0  0  0  0  0  0
   29.6986    8.9605    7.9668 H   0  0  0  0  0  0  0  0  0  0  0  0
  1  2  1  0
  2  3  1  0
  3  4  2  0
  4  5  1  0
  5  6  1  0
  6  7  2  0
  6  8  2  0
  6  9  1  0
  9 10  1  0
 10 11  2  0
 11 12  1  0
 12 13  1  0
 13 14  2  0
 14 15  1  0
 15 16  2  0
 16 17  1  0
 17 18  2  0
 18 19  1  0
 19 20  2  0
 20 21  1  0
 21 22  1  0
 22 23  1  0
 23 24  1  0
 24 25  1  0
 25 26  1  0
 26 27  2  0
 26 28  1  0
 28 29  1  0
 29 30  2  0
 22 31  1  0
 31 32  2  0
 14 33  1  0
 33 34  2  0
 34 35  1  0
 35 36  2  0
  5 37  1  0
 37 38  2  0
 38  3  1  0
 36 10  1  0
 36 13  1  0
 20 15  1  0
 29 23  1  0
 31 19  1  0
  1 39  1  0
  1 40  1  0
  1 41  1  0
  2 42  1  0
  2 43  1  0
  4 44  1  0
 11 45  1  0
 12 46  1  0
 16 47  1  0
 17 48  1  0
 18 49  1  0
 21 50  1  0
 21 51  1  0
 23 52  1  6
 24 53  1  0
 24 54  1  0
 25 55  1  0
 25 56  1  0
 28 57  1  0
 33 58  1  0
 34 59  1  0
 35 60  1  0
 37 61  1  0
M  END
>  <meeko>  (24) 
{"is_sidechain": [true], "free_energy": -15.33, "intermolecular_energy": 0.0, "internal_energy": -15.33, "cluster_size": 10, "cluster_id": 1, "rank_in_cluster": 1}

>  <_RMSD_MCS_to_ref>  (24) 
0.8534941254761044

$$$$
ligand
     RDKit          3D

 60 65  0  0  0  0  0  0  0  0999 V2000
   24.8540    9.4020    7.6050 C   0  0  0  0  0  0  0  0  0  0  0  0
   25.5230   10.7550    7.4270 C   0  0  0  0  0  0  0  0  0  0  0  0
   27.0070   10.6590    7.4790 C   0  0  0  0  0  0  0  0  0  0  0  0
   27.9350   11.6600    7.6900 C   0  0  0  0  0  0  0  0  0  0  0  0
   29.1410   11.0240    7.6010 N   0  0  0  0  0  0  0  0  0  0  0  0
   30.6400   11.6870    8.0020 S   0  0  0  0  0  6  0  0  0  0  0  0
   31.4730   10.5350    8.3000 O   0  0  0  0  0  0  0  0  0  0  0  0
   30.9420   12.5800    6.9000 O   0  0  0  0  0  0  0  0  0  0  0  0
   30.3840   12.5490    9.3550 O   0  0  0  0  0  0  0  0  0  0  0  0
   30.3790   13.8950    9.4190 C   0  0  0  0  0  0  0  0  0  0  0  0
   31.5410   14.5830    9.1550 C   0  0  0  0  0  0  0  0  0  0  0  0
   31.2740   15.9170    9.2800 N   0  0  0  0  0  0  0  0  0  0  0  0
   29.9540   16.1070    9.6210 C   0  0  0  0  0  0  0  0  0  0  0  0
   29.2610   17.3010    9.8440 C   0  0  0  0  0  0  0  0  0  0  0  0
   27.9100   17.2170   10.1900 C   0  0  0  0  0  0  0  0  0  0  0  0
   27.2590   15.9850   10.3230 C   0  0  0  0  0  0  0  0  0  0  0  0
   25.8350   15.9140   10.6710 C   0  0  0  0  0  0  0  0  0  0  0  0
   24.9390   15.2100    9.8350 C   0  0  0  0  0  0  0  0  0  0  0  0
   23.5630   15.1100   10.1280 C   0  0  0  0  0  0  0  0  0  0  0  0
   23.0390   15.7110   11.2690 C   0  0  0  0  0  0  0  0  0  0  0  0
   23.9220   16.3930   12.0840 C   0  0  0  0  0  0  0  0  0  0  0  0
   25.2780   16.4990   11.8040 C   0  0  0  0  0  0  0  0  0  0  0  0
   25.8690   17.2880   12.8970 C   0  0  0  0  0  0  0  0  0  0  0  0
   27.0290   17.6470   12.9680 O   0  0  0  0  0  0  0  0  0  0  0  0
   24.8600   17.5640   13.7810 N   0  0  0  0  0  0  0  0  0  0  0  0
   24.9840   18.4420   14.9340 C   0  0  1  0  0  0  0  0  0  0  0  0
   25.8220   17.8680   16.0740 C   0  0  0  0  0  0  0  0  0  0  0  0
   25.8460   18.8610   17.2270 C   0  0  0  0  0  0  0  0  0  0  0  0
   26.3670   20.2080   16.7790 C   0  0  0  0  0  0  0  0  0  0  0  0
   26.9380   20.9770   17.5470 O   0  0  0  0  0  0  0  0  0  0  0  0
   26.1170   20.5630   15.4770 N   0  0  0  0  0  0  0  0  0  0  0  0
   25.5540   19.7920   14.4840 C   0  0  0  0  0  0  0  0  0  0  0  0
   25.4770   20.2200   13.3330 O   0  0  0  0  0  0  0  0  0  0  0  0
   23.6580   17.1020   13.3310 C   0  0  0  0  0  0  0  0  0  0  0  0
   22.5570   17.2220   13.8340 O   0  0  0  0  0  0  0  0  0  0  0  0
   27.9910   14.8020   10.0870 C   0  0  0  0  0  0  0  0  0  0  0  0
   29.3580   14.8460    9.7270 C   0  0  0  0  0  0  0  0  0  0  0  0
   28.9280    9.6930    7.4330 C   0  0  0  0  0  0  0  0  0  0  0  0
   27.6400    9.4400    7.3270 N   0  0  0  0  0  0  0  0  0  0  0  0
   24.7464    9.1845    8.6779 H   0  0  0  0  0  0  0  0  0  0  0  0
   23.8606    9.4192    7.1330 H   0  0  0  0  0  0  0  0  0  0  0  0
   25.4708    8.6230    7.1330 H   0  0  0  0  0  0  0  0  0  0  0  0
   25.2288   11.1702    6.4518 H   0  0  0  0  0  0  0  0  0  0  0  0
   25.1973   11.4043    8.2530 H   0  0  0  0  0  0  0  0  0  0  0  0
   27.7462   12.7260    7.8852 H   0  0  0  0  0  0  0  0  0  0  0  0
   32.5117   14.1383    8.8905 H   0  0  0  0  0  0  0  0  0  0  0  0
   31.9610   16.6714    9.1394 H   0  0  0  0  0  0  0  0  0  0  0  0
   29.7634   18.2750    9.7500 H   0  0  0  0  0  0  0  0  0  0  0  0
   27.3429   18.1436   10.3625 H   0  0  0  0  0  0  0  0  0  0  0  0
   25.3270   14.7248    8.9272 H   0  0  0  0  0  0  0  0  0  0  0  0
   22.8993   14.5532    9.4502 H   0  0  0  0  0  0  0  0  0  0  0  0
   21.9680   15.6458   11.5114 H   0  0  0  0  0  0  0  0  0  0  0  0
   23.9711   18.5619   15.3458 H   0  0  0  0  0  0  0  0  0  0  0  0
   25.3800   16.9199   16.4142 H   0  0  0  0  0  0  0  0  0  0  0  0
   26.8482   17.6852   15.7224 H   0  0  0  0  0  0  0  0  0  0  0  0
   24.8245   18.9830   17.6165 H   0  0  0  0  0  0  0  0  0  0  0  0
   26.5154   18.4712   18.0080 H   0  0  0  0  0  0  0  0  0  0  0  0
   26.3824   21.5218   15.2102 H   0  0  0  0  0  0  0  0  0  0  0  0
   27.4894   13.8279   10.1848 H   0  0  0  0  0  0  0  0  0  0  0  0
   29.7213    8.9321    7.3913 H   0  0  0  0  0  0  0  0  0  0  0  0
  1  2  1  0
  2  3  1  0
  3  4  2  0
  4  5  1  0
  5  6  1  0
  6  7  2  0
  6  8  2  0
  6  9  1  0
  9 10  1  0
 10 11  2  0
 11 12  1  0
 12 13  1  0
 13 14  2  0
 14 15  1  0
 15 16  2  0
 16 17  1  0
 17 18  2  0
 18 19  1  0
 19 20  2  0
 20 21  1  0
 21 22  2  0
 22 23  1  0
 23 24  2  0
 23 25  1  0
 25 26  1  0
 26 27  1  0
 27 28  1  0
 28 29  1  0
 29 30  2  0
 29 31  1  0
 31 32  1  0
 32 33  2  0
 25 34  1  0
 34 35  2  0
 16 36  1  0
 36 37  2  0
  5 38  1  0
 38 39  2  0
 39  3  1  0
 37 10  1  0
 37 13  1  0
 22 17  1  0
 32 26  1  0
 34 21  1  0
  1 40  1  0
  1 41  1  0
  1 42  1  0
  2 43  1  0
  2 44  1  0
  4 45  1  0
 11 46  1  0
 12 47  1  0
 14 48  1  0
 15 49  1  0
 18 50  1  0
 19 51  1  0
 20 52  1  0
 26 53  1  1
 27 54  1  0
 27 55  1  0
 28 56  1  0
 28 57  1  0
 31 58  1  0
 36 59  1  0
 38 60  1  0
M  END
>  <meeko>  (25) 
{"is_sidechain": [true], "free_energy": -15.3, "intermolecular_energy": 0.0, "internal_energy": -15.3, "cluster_size": 7, "cluster_id": 1, "rank_in_cluster": 1}

>  <_RMSD_MCS_to_ref>  (25) 
0.6551523147753926

$$$$
ligand
     RDKit          3D

 62 66  0  0  0  0  0  0  0  0999 V2000
   24.8540    9.4020    7.6050 C   0  0  0  0  0  0  0  0  0  0  0  0
   25.5230   10.7550    7.4270 C   0  0  0  0  0  0  0  0  0  0  0  0
   26.9990   10.6350    7.2780 C   0  0  0  0  0  0  0  0  0  0  0  0
   27.8350   11.2690    6.3800 C   0  0  0  0  0  0  0  0  0  0  0  0
   29.0770   10.7900    6.6860 N   0  0  0  0  0  0  0  0  0  0  0  0
   30.5430   11.3560    6.0760 S   0  0  0  0  0  6  0  0  0  0  0  0
   31.5360   10.4460    6.6240 O   0  0  0  0  0  0  0  0  0  0  0  0
   30.3490   11.4510    4.6400 O   0  0  0  0  0  0  0  0  0  0  0  0
   30.8090   12.8410    6.7060 O   0  0  0  0  0  0  0  0  0  0  0  0
   30.7540   13.0140    8.0660 C   0  0  0  0  0  0  0  0  0  0  0  0
   31.6220   12.2610    8.8610 C   0  0  0  0  0  0  0  0  0  0  0  0
   31.6110   12.4190   10.2460 C   0  0  0  0  0  0  0  0  0  0  0  0
   30.7530   13.3450   10.8300 C   0  0  0  0  0  0  0  0  0  0  0  0
   29.9180   14.1290   10.0320 C   0  0  0  0  0  0  0  0  0  0  0  0
   29.9160   13.9890    8.6330 C   0  0  0  0  0  0  0  0  0  0  0  0
   29.0140   14.8790    7.8050 C   0  0  0  0  0  0  0  0  0  0  0  0
   27.6550   14.9870    8.3560 C   0  0  0  0  0  0  0  0  0  0  0  0
   26.5710   15.1040    8.8600 C   0  0  0  0  0  0  0  0  0  0  0  0
   25.3260   15.2840    9.5360 C   0  0  0  0  0  0  0  0  0  0  0  0
   24.1290   14.8030    8.9880 C   0  0  0  0  0  0  0  0  0  0  0  0
   22.9040   14.9910    9.6590 C   0  0  0  0  0  0  0  0  0  0  0  0
   22.8570   15.6620   10.8820 C   0  0  0  0  0  0  0  0  0  0  0  0
   24.0530   16.1200   11.4010 C   0  0  0  0  0  0  0  0  0  0  0  0
   25.2740   15.9430   10.7510 C   0  0  0  0  0  0  0  0  0  0  0  0
   26.3730   16.5550   11.5510 C   0  0  0  0  0  0  0  0  0  0  0  0
   25.6710   17.0600   12.7220 N   0  0  0  0  0  0  0  0  0  0  0  0
   26.2900   17.9290   13.7170 C   0  0  2  0  0  0  0  0  0  0  0  0
   25.9140   17.4920   15.1340 C   0  0  0  0  0  0  0  0  0  0  0  0
   26.6700   18.3310   16.1500 C   0  0  0  0  0  0  0  0  0  0  0  0
   26.4240   19.8040   15.9370 C   0  0  0  0  0  0  0  0  0  0  0  0
   26.4230   20.6110   16.8620 O   0  0  0  0  0  0  0  0  0  0  0  0
   26.2410   20.2180   14.6420 N   0  0  0  0  0  0  0  0  0  0  0  0
   25.9820   19.4270   13.5440 C   0  0  0  0  0  0  0  0  0  0  0  0
   25.5730   19.9400   12.5020 O   0  0  0  0  0  0  0  0  0  0  0  0
   24.3020   16.8660   12.6400 C   0  0  0  0  0  0  0  0  0  0  0  0
   23.4430   17.2530   13.4080 O   0  0  0  0  0  0  0  0  0  0  0  0
   28.9840    9.9590    7.7540 C   0  0  0  0  0  0  0  0  0  0  0  0
   27.7290    9.8260    8.1270 N   0  0  0  0  0  0  0  0  0  0  0  0
   24.7464    9.1845    8.6779 H   0  0  0  0  0  0  0  0  0  0  0  0
   23.8606    9.4192    7.1330 H   0  0  0  0  0  0  0  0  0  0  0  0
   25.4708    8.6230    7.1330 H   0  0  0  0  0  0  0  0  0  0  0  0
   25.1138   11.2373    6.5270 H   0  0  0  0  0  0  0  0  0  0  0  0
   25.3212   11.3535    8.3276 H   0  0  0  0  0  0  0  0  0  0  0  0
   27.5631   11.9933    5.5980 H   0  0  0  0  0  0  0  0  0  0  0  0
   32.3135   11.5441    8.3943 H   0  0  0  0  0  0  0  0  0  0  0  0
   32.2792   11.8129   10.8754 H   0  0  0  0  0  0  0  0  0  0  0  0
   30.7324   13.4599   11.9238 H   0  0  0  0  0  0  0  0  0  0  0  0
   29.2524   14.8665   10.5042 H   0  0  0  0  0  0  0  0  0  0  0  0
   29.4566   15.8851    7.7626 H   0  0  0  0  0  0  0  0  0  0  0  0
   28.9303   14.4263    6.8060 H   0  0  0  0  0  0  0  0  0  0  0  0
   24.1459   14.2732    8.0241 H   0  0  0  0  0  0  0  0  0  0  0  0
   21.9750   14.6048    9.2142 H   0  0  0  0  0  0  0  0  0  0  0  0
   21.9059   15.8199   11.4116 H   0  0  0  0  0  0  0  0  0  0  0  0
   27.1251   15.8033   11.8326 H   0  0  0  0  0  0  0  0  0  0  0  0
   26.9300   17.3317   11.0064 H   0  0  0  0  0  0  0  0  0  0  0  0
   27.3717   17.8147   13.5531 H   0  0  0  0  0  0  0  0  0  0  0  0
   24.8323   17.6261   15.2824 H   0  0  0  0  0  0  0  0  0  0  0  0
   26.1787   16.4329   15.2692 H   0  0  0  0  0  0  0  0  0  0  0  0
   26.3371   18.0548   17.1614 H   0  0  0  0  0  0  0  0  0  0  0  0
   27.7460   18.1377   16.0278 H   0  0  0  0  0  0  0  0  0  0  0  0
   26.3042   21.2319   14.4717 H   0  0  0  0  0  0  0  0  0  0  0  0
   29.8382    9.4653    8.2404 H   0  0  0  0  0  0  0  0  0  0  0  0
  1  2  1  0
  2  3  1  0
  3  4  2  0
  4  5  1  0
  5  6  1  0
  6  7  2  0
  6  8  2  0
  6  9  1  0
  9 10  1  0
 10 11  2  0
 11 12  1  0
 12 13  2  0
 13 14  1  0
 14 15  2  0
 15 16  1  0
 16 17  1  0
 17 18  3  0
 18 19  1  0
 19 20  2  0
 20 21  1  0
 21 22  2  0
 22 23  1  0
 23 24  2  0
 24 25  1  0
 25 26  1  0
 26 27  1  0
 27 28  1  0
 28 29  1  0
 29 30  1  0
 30 31  2  0
 30 32  1  0
 32 33  1  0
 33 34  2  0
 26 35  1  0
 35 36  2  0
  5 37  1  0
 37 38  2  0
 38  3  1  0
 15 10  1  0
 24 19  1  0
 33 27  1  0
 35 23  1  0
  1 39  1  0
  1 40  1  0
  1 41  1  0
  2 42  1  0
  2 43  1  0
  4 44  1  0
 11 45  1  0
 12 46  1  0
 13 47  1  0
 14 48  1  0
 16 49  1  0
 16 50  1  0
 20 51  1  0
 21 52  1  0
 22 53  1  0
 25 54  1  0
 25 55  1  0
 27 56  1  1
 28 57  1  0
 28 58  1  0
 29 59  1  0
 29 60  1  0
 32 61  1  0
 37 62  1  0
M  END
>  <meeko>  (26) 
{"is_sidechain": [true], "free_energy": -15.25, "intermolecular_energy": 0.0, "internal_energy": -15.25, "cluster_size": 20, "cluster_id": 1, "rank_in_cluster": 1}

>  <_RMSD_MCS_to_ref>  (26) 
1.1829705077567325

$$$$
ligand
     RDKit          3D

 59 64  0  0  0  0  0  0  0  0999 V2000
   24.8540    9.4020    7.6050 C   0  0  0  0  0  0  0  0  0  0  0  0
   25.5230   10.7550    7.4270 C   0  0  0  0  0  0  0  0  0  0  0  0
   27.0030   10.6750    7.5670 C   0  0  0  0  0  0  0  0  0  0  0  0
   27.9310   11.6970    7.5920 C   0  0  0  0  0  0  0  0  0  0  0  0
   29.1260   11.0590    7.7710 N   0  0  0  0  0  0  0  0  0  0  0  0
   30.6460   11.7680    7.6300 S   0  0  0  0  0  6  0  0  0  0  0  0
   30.6520   12.4030    6.3270 O   0  0  0  0  0  0  0  0  0  0  0  0
   31.5880   10.7190    7.9680 O   0  0  0  0  0  0  0  0  0  0  0  0
   30.7260   12.9250    8.7730 O   0  0  0  0  0  0  0  0  0  0  0  0
   29.6430   13.6970    9.1380 C   0  0  0  0  0  0  0  0  0  0  0  0
   28.3820   13.1570    9.7510 C   0  0  0  0  0  0  0  0  0  0  0  0
   27.3370   13.8520   10.0970 N   0  0  0  0  0  0  0  0  0  0  0  0
   27.4110   15.2040    9.8850 C   0  0  0  0  0  0  0  0  0  0  0  0
   26.5310   16.2400   10.1360 C   0  0  0  0  0  0  0  0  0  0  0  0
   25.2300   16.1120   10.7560 C   0  0  0  0  0  0  0  0  0  0  0  0
   24.2650   15.2640   10.1770 C   0  0  0  0  0  0  0  0  0  0  0  0
   23.0020   15.0760   10.7690 C   0  0  0  0  0  0  0  0  0  0  0  0
   22.6780   15.7230   11.9590 C   0  0  0  0  0  0  0  0  0  0  0  0
   23.6370   16.5500   12.5120 C   0  0  0  0  0  0  0  0  0  0  0  0
   24.8920   16.7590   11.9370 C   0  0  0  0  0  0  0  0  0  0  0  0
   25.6910   17.6700   12.8090 C   0  0  0  0  0  0  0  0  0  0  0  0
   24.7530   18.0180   13.8680 N   0  0  0  0  0  0  0  0  0  0  0  0
   25.1880   18.7350   15.0610 C   0  0  1  0  0  0  0  0  0  0  0  0
   26.2680   18.0050   15.8580 C   0  0  0  0  0  0  0  0  0  0  0  0
   26.6030   18.8080   17.1050 C   0  0  0  0  0  0  0  0  0  0  0  0
   27.0340   20.2120   16.7540 C   0  0  0  0  0  0  0  0  0  0  0  0
   27.7260   20.8910   17.5080 O   0  0  0  0  0  0  0  0  0  0  0  0
   26.5450   20.7330   15.5820 N   0  0  0  0  0  0  0  0  0  0  0  0
   25.6440   20.1610   14.7140 C   0  0  0  0  0  0  0  0  0  0  0  0
   25.1730   20.8200   13.7880 O   0  0  0  0  0  0  0  0  0  0  0  0
   23.5680   17.3100   13.7640 C   0  0  0  0  0  0  0  0  0  0  0  0
   22.6360   17.2760   14.5440 O   0  0  0  0  0  0  0  0  0  0  0  0
   27.2140   17.3980    9.7140 C   0  0  0  0  0  0  0  0  0  0  0  0
   28.4230   17.1390    9.2150 N   0  0  0  0  0  0  0  0  0  0  0  0
   28.5510   15.7960    9.3270 N   0  0  0  0  0  0  0  0  0  0  0  0
   29.6480   15.0250    8.9620 C   0  0  0  0  0  0  0  0  0  0  0  0
   28.9190    9.7180    7.7690 C   0  0  0  0  0  0  0  0  0  0  0  0
   27.6340    9.4500    7.6710 N   0  0  0  0  0  0  0  0  0  0  0  0
   24.7464    9.1845    8.6779 H   0  0  0  0  0  0  0  0  0  0  0  0
   23.8606    9.4192    7.1330 H   0  0  0  0  0  0  0  0  0  0  0  0
   25.4708    8.6230    7.1330 H   0  0  0  0  0  0  0  0  0  0  0  0
   25.2825   11.1397    6.4249 H   0  0  0  0  0  0  0  0  0  0  0  0
   25.1456   11.4238    8.2146 H   0  0  0  0  0  0  0  0  0  0  0  0
   27.7499   12.7773    7.4910 H   0  0  0  0  0  0  0  0  0  0  0  0
   28.3376   12.0716    9.9238 H   0  0  0  0  0  0  0  0  0  0  0  0
   24.5041   14.7372    9.2414 H   0  0  0  0  0  0  0  0  0  0  0  0
   22.2663   14.4140   10.2889 H   0  0  0  0  0  0  0  0  0  0  0  0
   21.6985   15.5814   12.4391 H   0  0  0  0  0  0  0  0  0  0  0  0
   26.5731   17.1541   13.2162 H   0  0  0  0  0  0  0  0  0  0  0  0
   26.0845   18.5467   12.2738 H   0  0  0  0  0  0  0  0  0  0  0  0
   24.3050   18.7870   15.7149 H   0  0  0  0  0  0  0  0  0  0  0  0
   25.9000   17.0103   16.1496 H   0  0  0  0  0  0  0  0  0  0  0  0
   27.1702   17.8934   15.2387 H   0  0  0  0  0  0  0  0  0  0  0  0
   25.7129   18.8570   17.7495 H   0  0  0  0  0  0  0  0  0  0  0  0
   27.4338   18.3098   17.6261 H   0  0  0  0  0  0  0  0  0  0  0  0
   26.8953   21.6657   15.3207 H   0  0  0  0  0  0  0  0  0  0  0  0
   26.7930   18.4115    9.7886 H   0  0  0  0  0  0  0  0  0  0  0  0
   30.5316   15.5113    8.5230 H   0  0  0  0  0  0  0  0  0  0  0  0
   29.7138    8.9608    7.8394 H   0  0  0  0  0  0  0  0  0  0  0  0
  1  2  1  0
  2  3  1  0
  3  4  2  0
  4  5  1  0
  5  6  1  0
  6  7  2  0
  6  8  2  0
  6  9  1  0
  9 10  1  0
 10 11  1  0
 11 12  2  0
 12 13  1  0
 13 14  2  0
 14 15  1  0
 15 16  2  0
 16 17  1  0
 17 18  2  0
 18 19  1  0
 19 20  2  0
 20 21  1  0
 21 22  1  0
 22 23  1  0
 23 24  1  0
 24 25  1  0
 25 26  1  0
 26 27  2  0
 26 28  1  0
 28 29  1  0
 29 30  2  0
 22 31  1  0
 31 32  2  0
 14 33  1  0
 33 34  2  0
 34 35  1  0
 35 36  1  0
  5 37  1  0
 37 38  2  0
 38  3  1  0
 36 10  2  0
 35 13  1  0
 20 15  1  0
 29 23  1  0
 31 19  1  0
  1 39  1  0
  1 40  1  0
  1 41  1  0
  2 42  1  0
  2 43  1  0
  4 44  1  0
 11 45  1  0
 16 46  1  0
 17 47  1  0
 18 48  1  0
 21 49  1  0
 21 50  1  0
 23 51  1  1
 24 52  1  0
 24 53  1  0
 25 54  1  0
 25 55  1  0
 28 56  1  0
 33 57  1  0
 36 58  1  0
 37 59  1  0
M  END
>  <meeko>  (27) 
{"is_sidechain": [true], "free_energy": -15.25, "intermolecular_energy": 0.0, "internal_energy": -15.25, "cluster_size": 17, "cluster_id": 1, "rank_in_cluster": 1}

>  <_RMSD_MCS_to_ref>  (27) 
0.5834716026604124

$$$$
ligand
     RDKit          3D

 62 66  0  0  0  0  0  0  0  0999 V2000
   24.8540    9.4020    7.6050 C   0  0  0  0  0  0  0  0  0  0  0  0
   25.5230   10.7550    7.4270 C   0  0  0  0  0  0  0  0  0  0  0  0
   27.0010   10.6380    7.2860 C   0  0  0  0  0  0  0  0  0  0  0  0
   27.8300   11.2270    6.3500 C   0  0  0  0  0  0  0  0  0  0  0  0
   29.0830   10.8170    6.7060 N   0  0  0  0  0  0  0  0  0  0  0  0
   30.4990   11.0900    5.8300 S   0  0  0  0  0  6  0  0  0  0  0  0
   31.4470   10.1430    6.3860 O   0  0  0  0  0  0  0  0  0  0  0  0
   30.1000   11.0140    4.4350 O   0  0  0  0  0  0  0  0  0  0  0  0
   31.0250   12.5990    6.1810 O   0  0  0  0  0  0  0  0  0  0  0  0
   30.4820   13.2670    7.2440 C   0  0  0  0  0  0  0  0  0  0  0  0
   30.8180   12.8400    8.5260 C   0  0  0  0  0  0  0  0  0  0  0  0
   30.2990   13.5110    9.6310 C   0  0  0  0  0  0  0  0  0  0  0  0
   29.4660   14.6160    9.4500 C   0  0  0  0  0  0  0  0  0  0  0  0
   29.1410   15.0670    8.1590 C   0  0  0  0  0  0  0  0  0  0  0  0
   28.2390   16.2680    7.9750 C   0  0  0  0  0  0  0  0  0  0  0  0
   26.9880   16.1220    8.7310 C   0  0  0  0  0  0  0  0  0  0  0  0
   26.0040   15.9340    9.3950 C   0  0  0  0  0  0  0  0  0  0  0  0
   24.8700   15.8250   10.2560 C   0  0  0  0  0  0  0  0  0  0  0  0
   23.6800   15.2280    9.8250 C   0  0  0  0  0  0  0  0  0  0  0  0
   22.5560   15.1710   10.6740 C   0  0  0  0  0  0  0  0  0  0  0  0
   22.6070   15.7110   11.9610 C   0  0  0  0  0  0  0  0  0  0  0  0
   23.7970   16.2880   12.3620 C   0  0  0  0  0  0  0  0  0  0  0  0
   24.9170   16.3450   11.5370 C   0  0  0  0  0  0  0  0  0  0  0  0
   26.0310   17.0390   12.2400 C   0  0  0  0  0  0  0  0  0  0  0  0
   25.4770   17.2770   13.5650 N   0  0  0  0  0  0  0  0  0  0  0  0
   26.1840   18.1310   14.5120 C   0  0  2  0  0  0  0  0  0  0  0  0
   25.8050   17.9100   15.9740 C   0  0  0  0  0  0  0  0  0  0  0  0
   26.7260   18.7440   16.8530 C   0  0  0  0  0  0  0  0  0  0  0  0
   26.6860   20.2060   16.4680 C   0  0  0  0  0  0  0  0  0  0  0  0
   27.0420   21.0960   17.2380 O   0  0  0  0  0  0  0  0  0  0  0  0
   26.2980   20.5010   15.1860 N   0  0  0  0  0  0  0  0  0  0  0  0
   26.0520   19.6200   14.1570 C   0  0  0  0  0  0  0  0  0  0  0  0
   25.8290   20.0410   13.0230 O   0  0  0  0  0  0  0  0  0  0  0  0
   24.1360   16.9390   13.6350 C   0  0  0  0  0  0  0  0  0  0  0  0
   23.3500   17.1290   14.5420 O   0  0  0  0  0  0  0  0  0  0  0  0
   29.6630   14.3820    7.0530 C   0  0  0  0  0  0  0  0  0  0  0  0
   28.9870    9.9610    7.7560 C   0  0  0  0  0  0  0  0  0  0  0  0
   27.7350    9.8510    8.1540 N   0  0  0  0  0  0  0  0  0  0  0  0
   24.7464    9.1845    8.6779 H   0  0  0  0  0  0  0  0  0  0  0  0
   23.8606    9.4192    7.1330 H   0  0  0  0  0  0  0  0  0  0  0  0
   25.4708    8.6230    7.1330 H   0  0  0  0  0  0  0  0  0  0  0  0
   25.1179   11.2343    6.5236 H   0  0  0  0  0  0  0  0  0  0  0  0
   25.3161   11.3547    8.3257 H   0  0  0  0  0  0  0  0  0  0  0  0
   27.5454   11.8776    5.5099 H   0  0  0  0  0  0  0  0  0  0  0  0
   31.4884   11.9791    8.6652 H   0  0  0  0  0  0  0  0  0  0  0  0
   30.5460   13.1696   10.6471 H   0  0  0  0  0  0  0  0  0  0  0  0
   29.0592   15.1399   10.3275 H   0  0  0  0  0  0  0  0  0  0  0  0
   28.7657   17.1678    8.3257 H   0  0  0  0  0  0  0  0  0  0  0  0
   27.9893   16.3520    6.9070 H   0  0  0  0  0  0  0  0  0  0  0  0
   23.6210   14.7990    8.8138 H   0  0  0  0  0  0  0  0  0  0  0  0
   21.6293   14.6963   10.3192 H   0  0  0  0  0  0  0  0  0  0  0  0
   21.7340   15.6783   12.6294 H   0  0  0  0  0  0  0  0  0  0  0  0
   26.9250   16.4003   12.2931 H   0  0  0  0  0  0  0  0  0  0  0  0
   26.3600   17.9585   11.7337 H   0  0  0  0  0  0  0  0  0  0  0  0
   27.2358   17.8246   14.4128 H   0  0  0  0  0  0  0  0  0  0  0  0
   24.7615   18.2180   16.1357 H   0  0  0  0  0  0  0  0  0  0  0  0
   25.9093   16.8452   16.2294 H   0  0  0  0  0  0  0  0  0  0  0  0
   26.4088   18.6417   17.9013 H   0  0  0  0  0  0  0  0  0  0  0  0
   27.7551   18.3797   16.7178 H   0  0  0  0  0  0  0  0  0  0  0  0
   26.1762   21.5001   14.9671 H   0  0  0  0  0  0  0  0  0  0  0  0
   29.4274   14.7229    6.0340 H   0  0  0  0  0  0  0  0  0  0  0  0
   29.8371    9.4321    8.2117 H   0  0  0  0  0  0  0  0  0  0  0  0
  1  2  1  0
  2  3  1  0
  3  4  2  0
  4  5  1  0
  5  6  1  0
  6  7  2  0
  6  8  2  0
  6  9  1  0
  9 10  1  0
 10 11  2  0
 11 12  1  0
 12 13  2  0
 13 14  1  0
 14 15  1  0
 15 16  1  0
 16 17  3  0
 17 18  1  0
 18 19  2  0
 19 20  1  0
 20 21  2  0
 21 22  1  0
 22 23  2  0
 23 24  1  0
 24 25  1  0
 25 26  1  0
 26 27  1  0
 27 28  1  0
 28 29  1  0
 29 30  2  0
 29 31  1  0
 31 32  1  0
 32 33  2  0
 25 34  1  0
 34 35  2  0
 14 36  2  0
  5 37  1  0
 37 38  2  0
 38  3  1  0
 36 10  1  0
 23 18  1  0
 32 26  1  0
 34 22  1  0
  1 39  1  0
  1 40  1  0
  1 41  1  0
  2 42  1  0
  2 43  1  0
  4 44  1  0
 11 45  1  0
 12 46  1  0
 13 47  1  0
 15 48  1  0
 15 49  1  0
 19 50  1  0
 20 51  1  0
 21 52  1  0
 24 53  1  0
 24 54  1  0
 26 55  1  1
 27 56  1  0
 27 57  1  0
 28 58  1  0
 28 59  1  0
 31 60  1  0
 36 61  1  0
 37 62  1  0
M  END
>  <meeko>  (28) 
{"is_sidechain": [true], "free_energy": -15.24, "intermolecular_energy": 0.0, "internal_energy": -15.24, "cluster_size": 16, "cluster_id": 1, "rank_in_cluster": 1}

>  <_RMSD_MCS_to_ref>  (28) 
0.879588161205761

$$$$
ligand
     RDKit          3D

 60 65  0  0  0  0  0  0  0  0999 V2000
   24.8540    9.4020    7.6050 C   0  0  0  0  0  0  0  0  0  0  0  0
   25.5230   10.7550    7.4270 C   0  0  0  0  0  0  0  0  0  0  0  0
   27.0050   10.6690    7.5380 C   0  0  0  0  0  0  0  0  0  0  0  0
   27.9430   11.6790    7.4500 C   0  0  0  0  0  0  0  0  0  0  0  0
   29.1360   11.0470    7.6570 N   0  0  0  0  0  0  0  0  0  0  0  0
   30.6620   11.7240    7.4230 S   0  0  0  0  0  6  0  0  0  0  0  0
   30.5990   12.3280    6.1050 O   0  0  0  0  0  0  0  0  0  0  0  0
   31.5920   10.6510    7.7220 O   0  0  0  0  0  0  0  0  0  0  0  0
   30.8090   12.8940    8.5470 O   0  0  0  0  0  0  0  0  0  0  0  0
   29.7590   13.6950    8.9270 C   0  0  0  0  0  0  0  0  0  0  0  0
   28.7170   13.0210    9.5710 C   0  0  0  0  0  0  0  0  0  0  0  0
   27.5770   13.7010   10.0180 C   0  0  0  0  0  0  0  0  0  0  0  0
   27.4810   15.0900    9.8060 C   0  0  0  0  0  0  0  0  0  0  0  0
   26.5300   16.1230   10.0920 C   0  0  0  0  0  0  0  0  0  0  0  0
   25.2190   16.0010   10.7290 C   0  0  0  0  0  0  0  0  0  0  0  0
   24.1680   15.3070   10.1010 C   0  0  0  0  0  0  0  0  0  0  0  0
   22.9050   15.1710   10.7120 C   0  0  0  0  0  0  0  0  0  0  0  0
   22.6640   15.7270   11.9670 C   0  0  0  0  0  0  0  0  0  0  0  0
   23.7030   16.4150   12.5640 C   0  0  0  0  0  0  0  0  0  0  0  0
   24.9560   16.5680   11.9700 C   0  0  0  0  0  0  0  0  0  0  0  0
   25.8320   17.3940   12.8560 C   0  0  0  0  0  0  0  0  0  0  0  0
   25.0100   17.5690   14.0500 N   0  0  0  0  0  0  0  0  0  0  0  0
   25.3350   18.5130   15.1120 C   0  0  1  0  0  0  0  0  0  0  0  0
   26.3120   17.9300   16.1280 C   0  0  0  0  0  0  0  0  0  0  0  0
   26.5340   18.9330   17.2490 C   0  0  0  0  0  0  0  0  0  0  0  0
   27.0150   20.2590   16.7080 C   0  0  0  0  0  0  0  0  0  0  0  0
   27.8080   20.9690   17.3210 O   0  0  0  0  0  0  0  0  0  0  0  0
   26.5030   20.6490   15.4970 N   0  0  0  0  0  0  0  0  0  0  0  0
   25.9040   19.8330   14.5630 C   0  0  0  0  0  0  0  0  0  0  0  0
   25.8460   20.1830   13.3870 O   0  0  0  0  0  0  0  0  0  0  0  0
   23.7240   17.0860   13.8680 C   0  0  0  0  0  0  0  0  0  0  0  0
   22.7760   17.1750   14.6250 O   0  0  0  0  0  0  0  0  0  0  0  0
   26.9970   17.3220    9.7070 N   0  0  0  0  0  0  0  0  0  0  0  0
   28.1770   17.0530    9.1310 N   0  0  0  0  0  0  0  0  0  0  0  0
   28.5390   15.7350    9.1740 C   0  0  0  0  0  0  0  0  0  0  0  0
   29.6880   15.0760    8.7160 C   0  0  0  0  0  0  0  0  0  0  0  0
   28.9170    9.7140    7.7760 C   0  0  0  0  0  0  0  0  0  0  0  0
   27.6270    9.4520    7.7350 N   0  0  0  0  0  0  0  0  0  0  0  0
   24.7464    9.1845    8.6779 H   0  0  0  0  0  0  0  0  0  0  0  0
   23.8606    9.4192    7.1330 H   0  0  0  0  0  0  0  0  0  0  0  0
   25.4708    8.6230    7.1330 H   0  0  0  0  0  0  0  0  0  0  0  0
   25.2646   11.1499    6.4334 H   0  0  0  0  0  0  0  0  0  0  0  0
   25.1625   11.4177    8.2276 H   0  0  0  0  0  0  0  0  0  0  0  0
   27.7690   12.7479    7.2573 H   0  0  0  0  0  0  0  0  0  0  0  0
   28.7940   11.9352    9.7298 H   0  0  0  0  0  0  0  0  0  0  0  0
   26.7677   13.1576   10.5277 H   0  0  0  0  0  0  0  0  0  0  0  0
   24.3361   14.8602    9.1100 H   0  0  0  0  0  0  0  0  0  0  0  0
   22.1042   14.6223   10.1947 H   0  0  0  0  0  0  0  0  0  0  0  0
   21.6871   15.6225   12.4618 H   0  0  0  0  0  0  0  0  0  0  0  0
   26.7673   16.8656   13.0926 H   0  0  0  0  0  0  0  0  0  0  0  0
   26.1429   18.3445   12.3978 H   0  0  0  0  0  0  0  0  0  0  0  0
   24.3817   18.7212   15.6197 H   0  0  0  0  0  0  0  0  0  0  0  0
   25.8970   17.0003   16.5444 H   0  0  0  0  0  0  0  0  0  0  0  0
   27.2705   17.7138   15.6335 H   0  0  0  0  0  0  0  0  0  0  0  0
   25.5862   19.0869   17.7857 H   0  0  0  0  0  0  0  0  0  0  0  0
   27.3029   18.5336   17.9267 H   0  0  0  0  0  0  0  0  0  0  0  0
   26.5733   21.6496   15.2632 H   0  0  0  0  0  0  0  0  0  0  0  0
   28.7622   17.7784    8.6926 H   0  0  0  0  0  0  0  0  0  0  0  0
   30.4994   15.6215    8.2121 H   0  0  0  0  0  0  0  0  0  0  0  0
   29.7068    8.9570    7.8908 H   0  0  0  0  0  0  0  0  0  0  0  0
  1  2  1  0
  2  3  1  0
  3  4  2  0
  4  5  1  0
  5  6  1  0
  6  7  2  0
  6  8  2  0
  6  9  1  0
  9 10  1  0
 10 11  2  0
 11 12  1  0
 12 13  2  0
 13 14  1  0
 14 15  1  0
 15 16  2  0
 16 17  1  0
 17 18  2  0
 18 19  1  0
 19 20  2  0
 20 21  1  0
 21 22  1  0
 22 23  1  0
 23 24  1  0
 24 25  1  0
 25 26  1  0
 26 27  2  0
 26 28  1  0
 28 29  1  0
 29 30  2  0
 22 31  1  0
 31 32  2  0
 14 33  2  0
 33 34  1  0
 34 35  1  0
 35 36  2  0
  5 37  1  0
 37 38  2  0
 38  3  1  0
 36 10  1  0
 35 13  1  0
 20 15  1  0
 29 23  1  0
 31 19  1  0
  1 39  1  0
  1 40  1  0
  1 41  1  0
  2 42  1  0
  2 43  1  0
  4 44  1  0
 11 45  1  0
 12 46  1  0
 16 47  1  0
 17 48  1  0
 18 49  1  0
 21 50  1  0
 21 51  1  0
 23 52  1  1
 24 53  1  0
 24 54  1  0
 25 55  1  0
 25 56  1  0
 28 57  1  0
 34 58  1  0
 36 59  1  0
 37 60  1  0
M  END
>  <meeko>  (29) 
{"is_sidechain": [true], "free_energy": -15.22, "intermolecular_energy": 0.0, "internal_energy": -15.22, "cluster_size": 19, "cluster_id": 1, "rank_in_cluster": 1}

>  <_RMSD_MCS_to_ref>  (29) 
0.7576971690589847

$$$$
ligand
     RDKit          3D

 60 65  0  0  0  0  0  0  0  0999 V2000
   24.8710    9.6160    7.7820 C   0  0  0  0  0  0  0  0  0  0  0  0
   25.4240   10.9650    7.3490 C   0  0  0  0  0  0  0  0  0  0  0  0
   26.8600   11.1250    7.7090 C   0  0  0  0  0  0  0  0  0  0  0  0
   27.4210   11.8490    8.7420 C   0  0  0  0  0  0  0  0  0  0  0  0
   28.7620   11.6140    8.6270 N   0  0  0  0  0  0  0  0  0  0  0  0
   29.9820   12.4330    9.4600 S   0  0  0  0  0  6  0  0  0  0  0  0
   31.1830   11.6760    9.1540 O   0  0  0  0  0  0  0  0  0  0  0  0
   29.4640   12.5530   10.8100 O   0  0  0  0  0  0  0  0  0  0  0  0
   30.0600   13.9060    8.7640 O   0  0  0  0  0  0  0  0  0  0  0  0
   29.0840   14.3710    7.9970 C   0  0  0  0  0  0  0  0  0  0  0  0
   28.9260   14.4300    6.6330 C   0  0  0  0  0  0  0  0  0  0  0  0
   27.6720   15.0570    6.4010 C   0  0  0  0  0  0  0  0  0  0  0  0
   26.9350   15.4140    5.2600 C   0  0  0  0  0  0  0  0  0  0  0  0
   25.6970   16.0400    5.4320 C   0  0  0  0  0  0  0  0  0  0  0  0
   25.1980   16.3090    6.7110 C   0  0  0  0  0  0  0  0  0  0  0  0
   25.9050   15.9680    7.8840 C   0  0  0  0  0  0  0  0  0  0  0  0
   25.3900   16.2370    9.2350 C   0  0  0  0  0  0  0  0  0  0  0  0
   24.1220   15.7490    9.6500 C   0  0  0  0  0  0  0  0  0  0  0  0
   23.6040   15.9990   10.9300 C   0  0  0  0  0  0  0  0  0  0  0  0
   24.3720   16.7340   11.8080 C   0  0  0  0  0  0  0  0  0  0  0  0
   25.6180   17.2090   11.4140 C   0  0  0  0  0  0  0  0  0  0  0  0
   26.1450   16.9840   10.1540 C   0  0  0  0  0  0  0  0  0  0  0  0
   26.2010   17.9490   12.5380 C   0  0  0  0  0  0  0  0  0  0  0  0
   27.2550   18.5510   12.4970 O   0  0  0  0  0  0  0  0  0  0  0  0
   25.3200   17.8210   13.6030 N   0  0  0  0  0  0  0  0  0  0  0  0
   25.4130   18.5810   14.8430 C   0  0  1  0  0  0  0  0  0  0  0  0
   26.3670   17.9690   15.8700 C   0  0  0  0  0  0  0  0  0  0  0  0
   26.3400   18.8010   17.1420 C   0  0  0  0  0  0  0  0  0  0  0  0
   26.6920   20.2430   16.8600 C   0  0  0  0  0  0  0  0  0  0  0  0
   27.1310   20.9910   17.7290 O   0  0  0  0  0  0  0  0  0  0  0  0
   26.4140   20.7110   15.6000 N   0  0  0  0  0  0  0  0  0  0  0  0
   25.7780   20.0490   14.5740 C   0  0  0  0  0  0  0  0  0  0  0  0
   25.4420   20.6580   13.5590 O   0  0  0  0  0  0  0  0  0  0  0  0
   24.0790   17.1710   13.2030 C   0  0  0  0  0  0  0  0  0  0  0  0
   27.1430   15.3410    7.6580 C   0  0  0  0  0  0  0  0  0  0  0  0
   28.0090   14.9090    8.6230 O   0  0  0  0  0  0  0  0  0  0  0  0
   28.9860   10.8550    7.5230 C   0  0  0  0  0  0  0  0  0  0  0  0
   27.8460   10.5200    6.9540 N   0  0  0  0  0  0  0  0  0  0  0  0
   24.8497    9.5640    8.8806 H   0  0  0  0  0  0  0  0  0  0  0  0
   23.8507    9.4948    7.3893 H   0  0  0  0  0  0  0  0  0  0  0  0
   25.5127    8.8135    7.3893 H   0  0  0  0  0  0  0  0  0  0  0  0
   25.3198   11.0571    6.2578 H   0  0  0  0  0  0  0  0  0  0  0  0
   24.8550   11.7475    7.8725 H   0  0  0  0  0  0  0  0  0  0  0  0
   26.9059   12.4727    9.4875 H   0  0  0  0  0  0  0  0  0  0  0  0
   29.6307   14.0643    5.8716 H   0  0  0  0  0  0  0  0  0  0  0  0
   27.3237   15.2054    4.2523 H   0  0  0  0  0  0  0  0  0  0  0  0
   25.1066   16.3253    4.5488 H   0  0  0  0  0  0  0  0  0  0  0  0
   24.2201   16.8037    6.8058 H   0  0  0  0  0  0  0  0  0  0  0  0
   23.5251   15.1541    8.9430 H   0  0  0  0  0  0  0  0  0  0  0  0
   22.6143   15.6197   11.2242 H   0  0  0  0  0  0  0  0  0  0  0  0
   27.1331   17.3814    9.8786 H   0  0  0  0  0  0  0  0  0  0  0  0
   24.4086   18.5384   15.2895 H   0  0  0  0  0  0  0  0  0  0  0  0
   26.0508   16.9403   16.0974 H   0  0  0  0  0  0  0  0  0  0  0  0
   27.3881   17.9556   15.4611 H   0  0  0  0  0  0  0  0  0  0  0  0
   25.3312   18.7567   17.5782 H   0  0  0  0  0  0  0  0  0  0  0  0
   27.0837   18.3916   17.8415 H   0  0  0  0  0  0  0  0  0  0  0  0
   26.7180   21.6741   15.3975 H   0  0  0  0  0  0  0  0  0  0  0  0
   23.8561   16.3096   13.8498 H   0  0  0  0  0  0  0  0  0  0  0  0
   23.1990   17.8266   13.2790 H   0  0  0  0  0  0  0  0  0  0  0  0
   29.9803   10.5611    7.1554 H   0  0  0  0  0  0  0  0  0  0  0  0
  1  2  1  0
  2  3  1  0
  3  4  2  0
  4  5  1  0
  5  6  1  0
  6  7  2  0
  6  8  2  0
  6  9  1  0
  9 10  1  0
 10 11  2  0
 11 12  1  0
 12 13  2  0
 13 14  1  0
 14 15  2  0
 15 16  1  0
 16 17  1  0
 17 18  2  0
 18 19  1  0
 19 20  2  0
 20 21  1  0
 21 22  2  0
 21 23  1  0
 23 24  2  0
 23 25  1  0
 25 26  1  0
 26 27  1  0
 27 28  1  0
 28 29  1  0
 29 30  2  0
 29 31  1  0
 31 32  1  0
 32 33  2  0
 25 34  1  0
 16 35  2  0
 35 36  1  0
  5 37  1  0
 37 38  2  0
 38  3  1  0
 36 10  1  0
 35 12  1  0
 22 17  1  0
 32 26  1  0
 34 20  1  0
  1 39  1  0
  1 40  1  0
  1 41  1  0
  2 42  1  0
  2 43  1  0
  4 44  1  0
 11 45  1  0
 13 46  1  0
 14 47  1  0
 15 48  1  0
 18 49  1  0
 19 50  1  0
 22 51  1  0
 26 52  1  1
 27 53  1  0
 27 54  1  0
 28 55  1  0
 28 56  1  0
 31 57  1  0
 34 58  1  0
 34 59  1  0
 37 60  1  0
M  END
>  <meeko>  (30) 
{"is_sidechain": [true], "free_energy": -15.2, "intermolecular_energy": 0.0, "internal_energy": -15.2, "cluster_size": 20, "cluster_id": 1, "rank_in_cluster": 1}

>  <_RMSD_MCS_to_ref>  (30) 
0.7287277726741771

$$$$
ligand
     RDKit          3D

 60 65  0  0  0  0  0  0  0  0999 V2000
   24.8540    9.4020    7.6050 C   0  0  0  0  0  0  0  0  0  0  0  0
   25.5230   10.7550    7.4270 C   0  0  0  0  0  0  0  0  0  0  0  0
   25.4870   11.2170    6.0130 C   0  0  0  0  0  0  0  0  0  0  0  0
   26.5210   11.6830    5.2250 C   0  0  0  0  0  0  0  0  0  0  0  0
   25.9290   11.9580    4.0250 N   0  0  0  0  0  0  0  0  0  0  0  0
   26.7050   12.5960    2.6710 S   0  0  0  0  0  6  0  0  0  0  0  0
   25.7620   12.4880    1.5710 O   0  0  0  0  0  0  0  0  0  0  0  0
   27.9610   11.8640    2.6260 O   0  0  0  0  0  0  0  0  0  0  0  0
   27.0700   14.1550    2.9430 O   0  0  0  0  0  0  0  0  0  0  0  0
   27.4670   14.6240    4.1330 C   0  0  0  0  0  0  0  0  0  0  0  0
   28.7380   14.9570    4.3390 N   0  0  0  0  0  0  0  0  0  0  0  0
   28.7390   15.3960    5.6140 N   0  0  0  0  0  0  0  0  0  0  0  0
   27.5050   15.3690    6.2120 C   0  0  0  0  0  0  0  0  0  0  0  0
   27.0840   15.7420    7.4940 C   0  0  0  0  0  0  0  0  0  0  0  0
   25.7210   15.5900    7.8150 C   0  0  0  0  0  0  0  0  0  0  0  0
   25.2260   15.9630    9.1520 C   0  0  0  0  0  0  0  0  0  0  0  0
   24.0310   15.3940    9.6610 C   0  0  0  0  0  0  0  0  0  0  0  0
   23.5420   15.7300   10.9270 C   0  0  0  0  0  0  0  0  0  0  0  0
   24.2670   16.6440   11.6630 C   0  0  0  0  0  0  0  0  0  0  0  0
   25.4440   17.2200   11.1960 C   0  0  0  0  0  0  0  0  0  0  0  0
   25.9360   16.8880    9.9440 C   0  0  0  0  0  0  0  0  0  0  0  0
   26.0020   18.1420   12.2270 C   0  0  0  0  0  0  0  0  0  0  0  0
   24.9810   18.1200   13.2650 N   0  0  0  0  0  0  0  0  0  0  0  0
   25.2170   18.7180   14.5740 C   0  0  1  0  0  0  0  0  0  0  0  0
   26.2790   17.9930   15.4010 C   0  0  0  0  0  0  0  0  0  0  0  0
   26.4000   18.6600   16.7620 C   0  0  0  0  0  0  0  0  0  0  0  0
   26.7190   20.1300   16.6270 C   0  0  0  0  0  0  0  0  0  0  0  0
   27.2590   20.7670   17.5270 O   0  0  0  0  0  0  0  0  0  0  0  0
   26.3010   20.7480   15.4760 N   0  0  0  0  0  0  0  0  0  0  0  0
   25.5570   20.2120   14.4500 C   0  0  0  0  0  0  0  0  0  0  0  0
   25.1150   20.9360   13.5580 O   0  0  0  0  0  0  0  0  0  0  0  0
   24.0000   17.1730   13.0050 C   0  0  0  0  0  0  0  0  0  0  0  0
   23.0900   16.8070   13.7230 O   0  0  0  0  0  0  0  0  0  0  0  0
   24.8400   15.0800    6.8450 C   0  0  0  0  0  0  0  0  0  0  0  0
   25.2790   14.7130    5.5640 C   0  0  0  0  0  0  0  0  0  0  0  0
   26.6390   14.8620    5.2500 C   0  0  0  0  0  0  0  0  0  0  0  0
   24.6020   11.6830    4.1080 C   0  0  0  0  0  0  0  0  0  0  0  0
   24.3000   11.2230    5.3060 N   0  0  0  0  0  0  0  0  0  0  0  0
   24.7464    9.1845    8.6779 H   0  0  0  0  0  0  0  0  0  0  0  0
   23.8606    9.4192    7.1330 H   0  0  0  0  0  0  0  0  0  0  0  0
   25.4708    8.6230    7.1330 H   0  0  0  0  0  0  0  0  0  0  0  0
   25.0021   11.4932    8.0545 H   0  0  0  0  0  0  0  0  0  0  0  0
   26.5776   10.6523    7.7224 H   0  0  0  0  0  0  0  0  0  0  0  0
   27.5789   11.8048    5.5005 H   0  0  0  0  0  0  0  0  0  0  0  0
   29.5894   15.7220    6.0952 H   0  0  0  0  0  0  0  0  0  0  0  0
   27.7972   16.1423    8.2296 H   0  0  0  0  0  0  0  0  0  0  0  0
   23.4756   14.6712    9.0453 H   0  0  0  0  0  0  0  0  0  0  0  0
   22.6167   15.2836   11.3201 H   0  0  0  0  0  0  0  0  0  0  0  0
   26.8678   17.3400    9.5732 H   0  0  0  0  0  0  0  0  0  0  0  0
   26.9646   17.7723   12.6100 H   0  0  0  0  0  0  0  0  0  0  0  0
   26.2104   19.1512   11.8421 H   0  0  0  0  0  0  0  0  0  0  0  0
   24.2702   18.6080   15.1231 H   0  0  0  0  0  0  0  0  0  0  0  0
   25.9868   16.9407   15.5325 H   0  0  0  0  0  0  0  0  0  0  0  0
   27.2468   18.0411   14.8804 H   0  0  0  0  0  0  0  0  0  0  0  0
   25.4480   18.5481   17.3016 H   0  0  0  0  0  0  0  0  0  0  0  0
   27.2196   18.1764   17.3137 H   0  0  0  0  0  0  0  0  0  0  0  0
   26.5779   21.7340   15.3662 H   0  0  0  0  0  0  0  0  0  0  0  0
   23.7756   14.9654    7.0979 H   0  0  0  0  0  0  0  0  0  0  0  0
   24.5717   14.3165    4.8207 H   0  0  0  0  0  0  0  0  0  0  0  0
   23.8800   11.8242    3.2902 H   0  0  0  0  0  0  0  0  0  0  0  0
  1  2  1  0
  2  3  1  0
  3  4  2  0
  4  5  1  0
  5  6  1  0
  6  7  2  0
  6  8  2  0
  6  9  1  0
  9 10  1  0
 10 11  2  0
 11 12  1  0
 12 13  1  0
 13 14  2  0
 14 15  1  0
 15 16  1  0
 16 17  2  0
 17 18  1  0
 18 19  2  0
 19 20  1  0
 20 21  2  0
 20 22  1  0
 22 23  1  0
 23 24  1  0
 24 25  1  0
 25 26  1  0
 26 27  1  0
 27 28  2  0
 27 29  1  0
 29 30  1  0
 30 31  2  0
 23 32  1  0
 32 33  2  0
 15 34  2  0
 34 35  1  0
 35 36  2  0
  5 37  1  0
 37 38  2  0
 38  3  1  0
 36 10  1  0
 36 13  1  0
 21 16  1  0
 30 24  1  0
 32 19  1  0
  1 39  1  0
  1 40  1  0
  1 41  1  0
  2 42  1  0
  2 43  1  0
  4 44  1  0
 12 45  1  0
 14 46  1  0
 17 47  1  0
 18 48  1  0
 21 49  1  0
 22 50  1  0
 22 51  1  0
 24 52  1  1
 25 53  1  0
 25 54  1  0
 26 55  1  0
 26 56  1  0
 29 57  1  0
 34 58  1  0
 35 59  1  0
 37 60  1  0
M  END
>  <meeko>  (31) 
{"is_sidechain": [true], "free_energy": -15.15, "intermolecular_energy": 0.0, "internal_energy": -15.15, "cluster_size": 20, "cluster_id": 1, "rank_in_cluster": 1}

>  <_RMSD_MCS_to_ref>  (31) 
0.48785277833925683

$$$$
ligand
     RDKit          3D

 60 65  0  0  0  0  0  0  0  0999 V2000
   24.8540    9.4020    7.6050 C   0  0  0  0  0  0  0  0  0  0  0  0
   25.5230   10.7550    7.4270 C   0  0  0  0  0  0  0  0  0  0  0  0
   27.0000   10.6370    7.2830 C   0  0  0  0  0  0  0  0  0  0  0  0
   27.8350   11.2510    6.3710 C   0  0  0  0  0  0  0  0  0  0  0  0
   29.0750   10.7590    6.6680 N   0  0  0  0  0  0  0  0  0  0  0  0
   30.5350   11.3300    6.0500 S   0  0  0  0  0  6  0  0  0  0  0  0
   30.3840   11.2510    4.6090 O   0  0  0  0  0  0  0  0  0  0  0  0
   31.5560   10.5720    6.7490 O   0  0  0  0  0  0  0  0  0  0  0  0
   30.6290   12.8960    6.4970 O   0  0  0  0  0  0  0  0  0  0  0  0
   29.7070   13.4860    7.2860 C   0  0  0  0  0  0  0  0  0  0  0  0
   29.7050   13.5790    8.6580 C   0  0  0  0  0  0  0  0  0  0  0  0
   28.6020   14.2510    9.0770 O   0  0  0  0  0  0  0  0  0  0  0  0
   27.8810   14.5980    7.9660 C   0  0  0  0  0  0  0  0  0  0  0  0
   26.6700   15.3100    7.9550 C   0  0  0  0  0  0  0  0  0  0  0  0
   26.0180   15.7730    9.1880 C   0  0  0  0  0  0  0  0  0  0  0  0
   24.7180   15.3160    9.5290 C   0  0  0  0  0  0  0  0  0  0  0  0
   24.0770   15.7290   10.7010 C   0  0  0  0  0  0  0  0  0  0  0  0
   24.7560   16.6080   11.5170 C   0  0  0  0  0  0  0  0  0  0  0  0
   26.0310   17.0760   11.2190 C   0  0  0  0  0  0  0  0  0  0  0  0
   26.6730   16.6660   10.0620 C   0  0  0  0  0  0  0  0  0  0  0  0
   26.5050   17.9870   12.2990 C   0  0  0  0  0  0  0  0  0  0  0  0
   25.3430   18.0790   13.1740 N   0  0  0  0  0  0  0  0  0  0  0  0
   25.4290   18.7090   14.4860 C   0  0  1  0  0  0  0  0  0  0  0  0
   26.4930   18.0950   15.3960 C   0  0  0  0  0  0  0  0  0  0  0  0
   26.4540   18.7830   16.7510 C   0  0  0  0  0  0  0  0  0  0  0  0
   26.6450   20.2750   16.6150 C   0  0  0  0  0  0  0  0  0  0  0  0
   27.0590   20.9700   17.5400 O   0  0  0  0  0  0  0  0  0  0  0  0
   26.2520   20.8410   15.4280 N   0  0  0  0  0  0  0  0  0  0  0  0
   25.6340   20.2280   14.3620 C   0  0  0  0  0  0  0  0  0  0  0  0
   25.1900   20.8990   13.4320 O   0  0  0  0  0  0  0  0  0  0  0  0
   24.3380   17.2020   12.7920 C   0  0  0  0  0  0  0  0  0  0  0  0
   23.3060   16.9320   13.3750 O   0  0  0  0  0  0  0  0  0  0  0  0
   26.1300   15.5470    6.6730 C   0  0  0  0  0  0  0  0  0  0  0  0
   26.7590   15.1040    5.5060 C   0  0  0  0  0  0  0  0  0  0  0  0
   27.9660   14.3980    5.5650 C   0  0  0  0  0  0  0  0  0  0  0  0
   28.5380   14.1420    6.8230 C   0  0  0  0  0  0  0  0  0  0  0  0
   28.9840    9.9580    7.7610 C   0  0  0  0  0  0  0  0  0  0  0  0
   27.7300    9.8440    8.1450 N   0  0  0  0  0  0  0  0  0  0  0  0
   24.7464    9.1845    8.6779 H   0  0  0  0  0  0  0  0  0  0  0  0
   23.8606    9.4192    7.1330 H   0  0  0  0  0  0  0  0  0  0  0  0
   25.4708    8.6230    7.1330 H   0  0  0  0  0  0  0  0  0  0  0  0
   25.1163   11.2354    6.5249 H   0  0  0  0  0  0  0  0  0  0  0  0
   25.3180   11.3542    8.3264 H   0  0  0  0  0  0  0  0  0  0  0  0
   27.5642   11.9714    5.5851 H   0  0  0  0  0  0  0  0  0  0  0  0
   30.4828   13.1691    9.3191 H   0  0  0  0  0  0  0  0  0  0  0  0
   24.2013   14.6185    8.8533 H   0  0  0  0  0  0  0  0  0  0  0  0
   23.0714   15.3670   10.9612 H   0  0  0  0  0  0  0  0  0  0  0  0
   27.6831   17.0329    9.8271 H   0  0  0  0  0  0  0  0  0  0  0  0
   27.3679   17.5580   12.8294 H   0  0  0  0  0  0  0  0  0  0  0  0
   26.8492   18.9631   11.9267 H   0  0  0  0  0  0  0  0  0  0  0  0
   24.4606   18.5153   14.9704 H   0  0  0  0  0  0  0  0  0  0  0  0
   26.2921   17.0210   15.5234 H   0  0  0  0  0  0  0  0  0  0  0  0
   27.4866   18.2292   14.9434 H   0  0  0  0  0  0  0  0  0  0  0  0
   25.4801   18.5881   17.2238 H   0  0  0  0  0  0  0  0  0  0  0  0
   27.2729   18.3830   17.3670 H   0  0  0  0  0  0  0  0  0  0  0  0
   26.4429   21.8476   15.3221 H   0  0  0  0  0  0  0  0  0  0  0  0
   25.1822   16.0989    6.5892 H   0  0  0  0  0  0  0  0  0  0  0  0
   26.2994   15.3129    4.5287 H   0  0  0  0  0  0  0  0  0  0  0  0
   28.4575   14.0502    4.6445 H   0  0  0  0  0  0  0  0  0  0  0  0
   29.8381    9.4727    8.2559 H   0  0  0  0  0  0  0  0  0  0  0  0
  1  2  1  0
  2  3  1  0
  3  4  2  0
  4  5  1  0
  5  6  1  0
  6  7  2  0
  6  8  2  0
  6  9  1  0
  9 10  1  0
 10 11  2  0
 11 12  1  0
 12 13  1  0
 13 14  2  0
 14 15  1  0
 15 16  2  0
 16 17  1  0
 17 18  2  0
 18 19  1  0
 19 20  2  0
 19 21  1  0
 21 22  1  0
 22 23  1  0
 23 24  1  0
 24 25  1  0
 25 26  1  0
 26 27  2  0
 26 28  1  0
 28 29  1  0
 29 30  2  0
 22 31  1  0
 31 32  2  0
 14 33  1  0
 33 34  2  0
 34 35  1  0
 35 36  2  0
  5 37  1  0
 37 38  2  0
 38  3  1  0
 36 10  1  0
 36 13  1  0
 20 15  1  0
 29 23  1  0
 31 18  1  0
  1 39  1  0
  1 40  1  0
  1 41  1  0
  2 42  1  0
  2 43  1  0
  4 44  1  0
 11 45  1  0
 16 46  1  0
 17 47  1  0
 20 48  1  0
 21 49  1  0
 21 50  1  0
 23 51  1  1
 24 52  1  0
 24 53  1  0
 25 54  1  0
 25 55  1  0
 28 56  1  0
 33 57  1  0
 34 58  1  0
 35 59  1  0
 37 60  1  0
M  END
>  <meeko>  (32) 
{"is_sidechain": [true], "free_energy": -15.08, "intermolecular_energy": 0.0, "internal_energy": -15.08, "cluster_size": 18, "cluster_id": 1, "rank_in_cluster": 1}

>  <_RMSD_MCS_to_ref>  (32) 
0.6221315509332935

$$$$
ligand
     RDKit          3D

 62 67  0  0  0  0  0  0  0  0999 V2000
   24.8710    9.6170    7.7820 C   0  0  0  0  0  0  0  0  0  0  0  0
   25.4240   10.9640    7.3490 C   0  0  0  0  0  0  0  0  0  0  0  0
   26.8750   11.1000    7.6520 C   0  0  0  0  0  0  0  0  0  0  0  0
   27.5120   12.0380    8.4430 C   0  0  0  0  0  0  0  0  0  0  0  0
   28.8240   11.6620    8.4150 N   0  0  0  0  0  0  0  0  0  0  0  0
   30.1240   12.5580    8.9960 S   0  0  0  0  0  6  0  0  0  0  0  0
   29.7660   12.8960   10.3630 O   0  0  0  0  0  0  0  0  0  0  0  0
   31.2680   11.7020    8.7320 O   0  0  0  0  0  0  0  0  0  0  0  0
   30.2870   13.8980    8.0760 O   0  0  0  0  0  0  0  0  0  0  0  0
   29.6160   13.9630    6.8770 C   0  0  0  0  0  0  0  0  0  0  0  0
   30.2730   13.4450    5.7570 C   0  0  0  0  0  0  0  0  0  0  0  0
   29.6320   13.4520    4.5240 C   0  0  0  0  0  0  0  0  0  0  0  0
   28.3370   13.9550    4.4270 C   0  0  0  0  0  0  0  0  0  0  0  0
   27.6740   14.4510    5.5650 C   0  0  0  0  0  0  0  0  0  0  0  0
   26.3610   14.9260    5.4890 C   0  0  0  0  0  0  0  0  0  0  0  0
   25.7240   15.3790    6.6370 C   0  0  0  0  0  0  0  0  0  0  0  0
   26.4220   15.3630    7.8360 C   0  0  0  0  0  0  0  0  0  0  0  0
   25.8060   15.8040    9.0910 C   0  0  0  0  0  0  0  0  0  0  0  0
   24.4520   15.4890    9.3770 C   0  0  0  0  0  0  0  0  0  0  0  0
   23.8510   15.8790   10.5770 C   0  0  0  0  0  0  0  0  0  0  0  0
   24.6290   16.5810   11.4750 C   0  0  0  0  0  0  0  0  0  0  0  0
   25.9560   16.9130   11.2220 C   0  0  0  0  0  0  0  0  0  0  0  0
   26.5550   16.5350   10.0310 C   0  0  0  0  0  0  0  0  0  0  0  0
   26.5270   17.6650   12.3770 C   0  0  0  0  0  0  0  0  0  0  0  0
   25.4290   17.6470   13.3370 N   0  0  0  0  0  0  0  0  0  0  0  0
   25.4250   18.4290   14.5650 C   0  0  1  0  0  0  0  0  0  0  0  0
   26.3160   17.8200   15.6440 C   0  0  0  0  0  0  0  0  0  0  0  0
   26.1890   18.6350   16.9230 C   0  0  0  0  0  0  0  0  0  0  0  0
   26.5140   20.0900   16.6790 C   0  0  0  0  0  0  0  0  0  0  0  0
   27.0630   20.7920   17.5220 O   0  0  0  0  0  0  0  0  0  0  0  0
   26.1410   20.6070   15.4640 N   0  0  0  0  0  0  0  0  0  0  0  0
   25.8480   19.8870   14.3270 C   0  0  0  0  0  0  0  0  0  0  0  0
   25.9310   20.4180   13.2220 O   0  0  0  0  0  0  0  0  0  0  0  0
   24.2780   17.0870   12.8060 C   0  0  0  0  0  0  0  0  0  0  0  0
   23.1780   17.0020   13.3190 O   0  0  0  0  0  0  0  0  0  0  0  0
   27.7050   14.9280    7.9330 N   0  0  0  0  0  0  0  0  0  0  0  0
   28.3170   14.4670    6.8200 C   0  0  0  0  0  0  0  0  0  0  0  0
   28.9680   10.6220    7.5530 C   0  0  0  0  0  0  0  0  0  0  0  0
   27.7960   10.2260    7.1000 N   0  0  0  0  0  0  0  0  0  0  0  0
   24.8498    9.5653    8.8806 H   0  0  0  0  0  0  0  0  0  0  0  0
   23.8505    9.4962    7.3895 H   0  0  0  0  0  0  0  0  0  0  0  0
   25.5122    8.8140    7.3895 H   0  0  0  0  0  0  0  0  0  0  0  0
   25.2766   11.0754    6.2646 H   0  0  0  0  0  0  0  0  0  0  0  0
   24.8877   11.7447    7.9083 H   0  0  0  0  0  0  0  0  0  0  0  0
   27.0643   12.8915    8.9733 H   0  0  0  0  0  0  0  0  0  0  0  0
   31.2894   13.0351    5.8510 H   0  0  0  0  0  0  0  0  0  0  0  0
   30.1437   13.0631    3.6313 H   0  0  0  0  0  0  0  0  0  0  0  0
   27.8277   13.9647    3.4521 H   0  0  0  0  0  0  0  0  0  0  0  0
   25.8345   14.9408    4.5233 H   0  0  0  0  0  0  0  0  0  0  0  0
   24.6868   15.7432    6.5965 H   0  0  0  0  0  0  0  0  0  0  0  0
   23.8629   14.9258    8.6383 H   0  0  0  0  0  0  0  0  0  0  0  0
   22.8008   15.6363   10.7967 H   0  0  0  0  0  0  0  0  0  0  0  0
   27.6015   16.8028    9.8235 H   0  0  0  0  0  0  0  0  0  0  0  0
   27.4165   17.1591   12.7805 H   0  0  0  0  0  0  0  0  0  0  0  0
   26.8663   18.6785   12.1167 H   0  0  0  0  0  0  0  0  0  0  0  0
   24.3830   18.4138   14.9172 H   0  0  0  0  0  0  0  0  0  0  0  0
   26.0028   16.7833   15.8367 H   0  0  0  0  0  0  0  0  0  0  0  0
   27.3624   17.8287   15.3049 H   0  0  0  0  0  0  0  0  0  0  0  0
   25.1579   18.5558   17.2979 H   0  0  0  0  0  0  0  0  0  0  0  0
   26.9019   18.2382   17.6608 H   0  0  0  0  0  0  0  0  0  0  0  0
   26.0736   21.6325   15.3956 H   0  0  0  0  0  0  0  0  0  0  0  0
   29.9315   10.1720    7.2717 H   0  0  0  0  0  0  0  0  0  0  0  0
  1  2  1  0
  2  3  1  0
  3  4  2  0
  4  5  1  0
  5  6  1  0
  6  7  2  0
  6  8  2  0
  6  9  1  0
  9 10  1  0
 10 11  2  0
 11 12  1  0
 12 13  2  0
 13 14  1  0
 14 15  2  0
 15 16  1  0
 16 17  2  0
 17 18  1  0
 18 19  2  0
 19 20  1  0
 20 21  2  0
 21 22  1  0
 22 23  2  0
 22 24  1  0
 24 25  1  0
 25 26  1  0
 26 27  1  0
 27 28  1  0
 28 29  1  0
 29 30  2  0
 29 31  1  0
 31 32  1  0
 32 33  2  0
 25 34  1  0
 34 35  2  0
 17 36  1  0
 36 37  2  0
  5 38  1  0
 38 39  2  0
 39  3  1  0
 37 10  1  0
 37 14  1  0
 23 18  1  0
 32 26  1  0
 34 21  1  0
  1 40  1  0
  1 41  1  0
  1 42  1  0
  2 43  1  0
  2 44  1  0
  4 45  1  0
 11 46  1  0
 12 47  1  0
 13 48  1  0
 15 49  1  0
 16 50  1  0
 19 51  1  0
 20 52  1  0
 23 53  1  0
 24 54  1  0
 24 55  1  0
 26 56  1  1
 27 57  1  0
 27 58  1  0
 28 59  1  0
 28 60  1  0
 31 61  1  0
 38 62  1  0
M  END
>  <meeko>  (33) 
{"is_sidechain": [true], "free_energy": -15.04, "intermolecular_energy": 0.0, "internal_energy": -15.04, "cluster_size": 18, "cluster_id": 1, "rank_in_cluster": 1}

>  <_RMSD_MCS_to_ref>  (33) 
0.7448115268484478

$$$$
ligand
     RDKit          3D

 59 64  0  0  0  0  0  0  0  0999 V2000
   24.8540    9.4020    7.6050 C   0  0  0  0  0  0  0  0  0  0  0  0
   25.5230   10.7550    7.4270 C   0  0  0  0  0  0  0  0  0  0  0  0
   27.0070   10.6640    7.5090 C   0  0  0  0  0  0  0  0  0  0  0  0
   27.9470   11.6670    7.3750 C   0  0  0  0  0  0  0  0  0  0  0  0
   29.1410   11.0290    7.5550 N   0  0  0  0  0  0  0  0  0  0  0  0
   30.6470   11.7560    7.4980 S   0  0  0  0  0  6  0  0  0  0  0  0
   30.5310   12.9560    6.7000 O   0  0  0  0  0  0  0  0  0  0  0  0
   31.5810   10.6930    7.1770 O   0  0  0  0  0  0  0  0  0  0  0  0
   31.1440   12.2790    9.0920 C   0  0  0  0  0  0  0  0  0  0  0  0
   32.2890   11.7540    9.6300 N   0  0  0  0  0  0  0  0  0  0  0  0
   32.5660   12.1990   10.8680 N   0  0  0  0  0  0  0  0  0  0  0  0
   31.5860   13.0700   11.1140 C   0  0  0  0  0  0  0  0  0  0  0  0
   30.6730   13.1580   10.0460 C   0  0  0  0  0  0  0  0  0  0  0  0
   29.4970   14.0030   10.0050 C   0  0  0  0  0  0  0  0  0  0  0  0
   28.1880   13.7110   10.3030 C   0  0  0  0  0  0  0  0  0  0  0  0
   27.5050   14.8840   10.0590 N   0  0  0  0  0  0  0  0  0  0  0  0
   26.1160   15.1490   10.1810 C   0  0  0  0  0  0  0  0  0  0  0  0
   25.1940   14.5740    9.2820 C   0  0  0  0  0  0  0  0  0  0  0  0
   23.8130   14.8270    9.3940 C   0  0  0  0  0  0  0  0  0  0  0  0
   23.3230   15.6560   10.4000 C   0  0  0  0  0  0  0  0  0  0  0  0
   24.2430   16.2150   11.2660 C   0  0  0  0  0  0  0  0  0  0  0  0
   25.6180   15.9820   11.1820 C   0  0  0  0  0  0  0  0  0  0  0  0
   26.3030   16.7230   12.2900 C   0  0  0  0  0  0  0  0  0  0  0  0
   25.2150   17.4570   12.9210 N   0  0  0  0  0  0  0  0  0  0  0  0
   25.4100   18.1450   14.1920 C   0  0  1  0  0  0  0  0  0  0  0  0
   26.5820   17.6050   15.0100 C   0  0  0  0  0  0  0  0  0  0  0  0
   26.6560   18.3480   16.3350 C   0  0  0  0  0  0  0  0  0  0  0  0
   26.7800   19.8370   16.1220 C   0  0  0  0  0  0  0  0  0  0  0  0
   27.2880   20.5790   16.9580 O   0  0  0  0  0  0  0  0  0  0  0  0
   26.2240   20.3440   14.9740 N   0  0  0  0  0  0  0  0  0  0  0  0
   25.5530   19.6620   13.9840 C   0  0  0  0  0  0  0  0  0  0  0  0
   25.0320   20.2740   13.0520 O   0  0  0  0  0  0  0  0  0  0  0  0
   23.9840   17.1090   12.4000 C   0  0  0  0  0  0  0  0  0  0  0  0
   22.8770   17.4380   12.7810 O   0  0  0  0  0  0  0  0  0  0  0  0
   28.3810   15.8270    9.6430 N   0  0  0  0  0  0  0  0  0  0  0  0
   29.5940   15.2980    9.6100 N   0  0  0  0  0  0  0  0  0  0  0  0
   28.9160    9.7100    7.7720 C   0  0  0  0  0  0  0  0  0  0  0  0
   27.6230    9.4540    7.7540 N   0  0  0  0  0  0  0  0  0  0  0  0
   24.7464    9.1845    8.6779 H   0  0  0  0  0  0  0  0  0  0  0  0
   23.8606    9.4192    7.1330 H   0  0  0  0  0  0  0  0  0  0  0  0
   25.4708    8.6230    7.1330 H   0  0  0  0  0  0  0  0  0  0  0  0
   25.2468   11.1599    6.4422 H   0  0  0  0  0  0  0  0  0  0  0  0
   25.1795   11.4111    8.2404 H   0  0  0  0  0  0  0  0  0  0  0  0
   27.7738   12.7339    7.1704 H   0  0  0  0  0  0  0  0  0  0  0  0
   32.8848   11.0784    9.1305 H   0  0  0  0  0  0  0  0  0  0  0  0
   31.5011   13.6520   12.0436 H   0  0  0  0  0  0  0  0  0  0  0  0
   27.7763   12.7545   10.6574 H   0  0  0  0  0  0  0  0  0  0  0  0
   25.5597   13.9166    8.4795 H   0  0  0  0  0  0  0  0  0  0  0  0
   23.1149   14.3654    8.6801 H   0  0  0  0  0  0  0  0  0  0  0  0
   22.2464   15.8577   10.5011 H   0  0  0  0  0  0  0  0  0  0  0  0
   26.7724   16.0259   12.9997 H   0  0  0  0  0  0  0  0  0  0  0  0
   27.1151   17.3749   11.9357 H   0  0  0  0  0  0  0  0  0  0  0  0
   24.5029   17.9436   14.7807 H   0  0  0  0  0  0  0  0  0  0  0  0
   26.4344   16.5314   15.1987 H   0  0  0  0  0  0  0  0  0  0  0  0
   27.5188   17.7523   14.4526 H   0  0  0  0  0  0  0  0  0  0  0  0
   25.7422   18.1434   16.9122 H   0  0  0  0  0  0  0  0  0  0  0  0
   27.5461   17.9996   16.8794 H   0  0  0  0  0  0  0  0  0  0  0  0
   26.3207   21.3601   14.8362 H   0  0  0  0  0  0  0  0  0  0  0  0
   29.7019    8.9588    7.9396 H   0  0  0  0  0  0  0  0  0  0  0  0
  1  2  1  0
  2  3  1  0
  3  4  2  0
  4  5  1  0
  5  6  1  0
  6  7  2  0
  6  8  2  0
  6  9  1  0
  9 10  1  0
 10 11  1  0
 11 12  2  0
 12 13  1  0
 13 14  1  0
 14 15  2  0
 15 16  1  0
 16 17  1  0
 17 18  2  0
 18 19  1  0
 19 20  2  0
 20 21  1  0
 21 22  2  0
 22 23  1  0
 23 24  1  0
 24 25  1  0
 25 26  1  0
 26 27  1  0
 27 28  1  0
 28 29  2  0
 28 30  1  0
 30 31  1  0
 31 32  2  0
 24 33  1  0
 33 34  2  0
 16 35  1  0
 35 36  2  0
  5 37  1  0
 37 38  2  0
 38  3  1  0
 13  9  2  0
 36 14  1  0
 22 17  1  0
 31 25  1  0
 33 21  1  0
  1 39  1  0
  1 40  1  0
  1 41  1  0
  2 42  1  0
  2 43  1  0
  4 44  1  0
 10 45  1  0
 12 46  1  0
 15 47  1  0
 18 48  1  0
 19 49  1  0
 20 50  1  0
 23 51  1  0
 23 52  1  0
 25 53  1  1
 26 54  1  0
 26 55  1  0
 27 56  1  0
 27 57  1  0
 30 58  1  0
 37 59  1  0
M  END
>  <meeko>  (34) 
{"is_sidechain": [true], "free_energy": -15.01, "intermolecular_energy": 0.0, "internal_energy": -15.01, "cluster_size": 19, "cluster_id": 1, "rank_in_cluster": 1}

>  <_RMSD_MCS_to_ref>  (34) 
0.6581921367571086

$$$$
ligand
     RDKit          3D

 58 62  0  0  0  0  0  0  0  0999 V2000
   24.8540    9.4020    7.6050 C   0  0  0  0  0  0  0  0  0  0  0  0
   25.5230   10.7550    7.4270 C   0  0  0  0  0  0  0  0  0  0  0  0
   26.8590   10.6410    6.7810 C   0  0  0  0  0  0  0  0  0  0  0  0
   27.2260   10.9400    5.4840 C   0  0  0  0  0  0  0  0  0  0  0  0
   28.5520   10.6190    5.4270 N   0  0  0  0  0  0  0  0  0  0  0  0
   29.6050   10.9970    4.1660 S   0  0  0  0  0  6  0  0  0  0  0  0
   28.9510   10.4830    2.9770 O   0  0  0  0  0  0  0  0  0  0  0  0
   30.8950   10.4940    4.6030 O   0  0  0  0  0  0  0  0  0  0  0  0
   29.6520   12.6240    4.0990 O   0  0  0  0  0  0  0  0  0  0  0  0
   28.5420   13.4070    4.2890 C   0  0  0  0  0  0  0  0  0  0  0  0
   27.9080   13.8240    3.1140 C   0  0  0  0  0  0  0  0  0  0  0  0
   26.7670   14.6250    3.1710 C   0  0  0  0  0  0  0  0  0  0  0  0
   26.2550   15.0150    4.4070 C   0  0  0  0  0  0  0  0  0  0  0  0
   26.8840   14.6030    5.5830 C   0  0  0  0  0  0  0  0  0  0  0  0
   26.3560   15.0030    6.8510 C   0  0  0  0  0  0  0  0  0  0  0  0
   25.9150   15.3380    7.9180 C   0  0  0  0  0  0  0  0  0  0  0  0
   25.3910   15.7330    9.1870 C   0  0  0  0  0  0  0  0  0  0  0  0
   24.0780   15.3550    9.5470 C   0  0  0  0  0  0  0  0  0  0  0  0
   23.5340   15.7290   10.7830 C   0  0  0  0  0  0  0  0  0  0  0  0
   24.3360   16.4740   11.6230 C   0  0  0  0  0  0  0  0  0  0  0  0
   25.6210   16.8430   11.2710 C   0  0  0  0  0  0  0  0  0  0  0  0
   26.1820   16.4920   10.0580 C   0  0  0  0  0  0  0  0  0  0  0  0
   26.1720   17.6260   12.3750 C   0  0  0  0  0  0  0  0  0  0  0  0
   27.2700   18.1490   12.3590 O   0  0  0  0  0  0  0  0  0  0  0  0
   25.2160   17.6520   13.3550 N   0  0  0  0  0  0  0  0  0  0  0  0
   25.2890   18.4470   14.5720 C   0  0  1  0  0  0  0  0  0  0  0  0
   26.2170   17.8750   15.6400 C   0  0  0  0  0  0  0  0  0  0  0  0
   26.1760   18.7710   16.8690 C   0  0  0  0  0  0  0  0  0  0  0  0
   26.5410   20.1950   16.5210 C   0  0  0  0  0  0  0  0  0  0  0  0
   27.0560   20.9580   17.3350 O   0  0  0  0  0  0  0  0  0  0  0  0
   26.2160   20.6240   15.2570 N   0  0  0  0  0  0  0  0  0  0  0  0
   25.7110   19.8760   14.2170 C   0  0  0  0  0  0  0  0  0  0  0  0
   25.5660   20.3780   13.1030 O   0  0  0  0  0  0  0  0  0  0  0  0
   24.0710   17.0180   12.9530 C   0  0  0  0  0  0  0  0  0  0  0  0
   23.0160   16.8970   13.5460 O   0  0  0  0  0  0  0  0  0  0  0  0
   28.0270   13.7990    5.5260 C   0  0  0  0  0  0  0  0  0  0  0  0
   28.9670   10.2290    6.6610 C   0  0  0  0  0  0  0  0  0  0  0  0
   27.9550   10.2050    7.5020 N   0  0  0  0  0  0  0  0  0  0  0  0
   24.7464    9.1845    8.6779 H   0  0  0  0  0  0  0  0  0  0  0  0
   23.8606    9.4192    7.1330 H   0  0  0  0  0  0  0  0  0  0  0  0
   25.4708    8.6230    7.1330 H   0  0  0  0  0  0  0  0  0  0  0  0
   24.8791   11.3888    6.7996 H   0  0  0  0  0  0  0  0  0  0  0  0
   25.6669   11.1944    8.4251 H   0  0  0  0  0  0  0  0  0  0  0  0
   26.5941   11.3447    4.6797 H   0  0  0  0  0  0  0  0  0  0  0  0
   28.3120   13.5181    2.1377 H   0  0  0  0  0  0  0  0  0  0  0  0
   26.2729   14.9478    2.2427 H   0  0  0  0  0  0  0  0  0  0  0  0
   25.3560   15.6470    4.4558 H   0  0  0  0  0  0  0  0  0  0  0  0
   23.4743   14.7587    8.8471 H   0  0  0  0  0  0  0  0  0  0  0  0
   22.5121   15.4412   11.0711 H   0  0  0  0  0  0  0  0  0  0  0  0
   27.2045   16.7954    9.7886 H   0  0  0  0  0  0  0  0  0  0  0  0
   24.2829   18.4326   15.0164 H   0  0  0  0  0  0  0  0  0  0  0  0
   25.8852   16.8620   15.9117 H   0  0  0  0  0  0  0  0  0  0  0  0
   27.2447   17.8280   15.2505 H   0  0  0  0  0  0  0  0  0  0  0  0
   25.1604   18.7541   17.2913 H   0  0  0  0  0  0  0  0  0  0  0  0
   26.9068   18.3933   17.5993 H   0  0  0  0  0  0  0  0  0  0  0  0
   26.3682   21.6243   15.0643 H   0  0  0  0  0  0  0  0  0  0  0  0
   28.5197   13.4758    6.4549 H   0  0  0  0  0  0  0  0  0  0  0  0
   30.0040    9.9696    6.9206 H   0  0  0  0  0  0  0  0  0  0  0  0
  1  2  1  0
  2  3  1  0
  3  4  2  0
  4  5  1  0
  5  6  1  0
  6  7  2  0
  6  8  2  0
  6  9  1  0
  9 10  1  0
 10 11  2  0
 11 12  1  0
 12 13  2  0
 13 14  1  0
 14 15  1  0
 15 16  3  0
 16 17  1  0
 17 18  2  0
 18 19  1  0
 19 20  2  0
 20 21  1  0
 21 22  2  0
 21 23  1  0
 23 24  2  0
 23 25  1  0
 25 26  1  0
 26 27  1  0
 27 28  1  0
 28 29  1  0
 29 30  2  0
 29 31  1  0
 31 32  1  0
 32 33  2  0
 25 34  1  0
 34 35  2  0
 14 36  2  0
  5 37  1  0
 37 38  2  0
 38  3  1  0
 36 10  1  0
 22 17  1  0
 32 26  1  0
 34 20  1  0
  1 39  1  0
  1 40  1  0
  1 41  1  0
  2 42  1  0
  2 43  1  0
  4 44  1  0
 11 45  1  0
 12 46  1  0
 13 47  1  0
 18 48  1  0
 19 49  1  0
 22 50  1  0
 26 51  1  1
 27 52  1  0
 27 53  1  0
 28 54  1  0
 28 55  1  0
 31 56  1  0
 36 57  1  0
 37 58  1  0
M  END
>  <meeko>  (35) 
{"is_sidechain": [true], "free_energy": -15.0, "intermolecular_energy": 0.0, "internal_energy": -15.0, "cluster_size": 20, "cluster_id": 1, "rank_in_cluster": 1}

>  <_RMSD_MCS_to_ref>  (35) 
0.6000786985424854

$$$$
ligand
     RDKit          3D

 62 67  0  0  0  0  0  0  0  0999 V2000
   24.8540    9.4020    7.6050 C   0  0  0  0  0  0  0  0  0  0  0  0
   25.5230   10.7550    7.4270 C   0  0  0  0  0  0  0  0  0  0  0  0
   25.2860   11.3250    6.0730 C   0  0  0  0  0  0  0  0  0  0  0  0
   26.1960   11.5850    5.0670 C   0  0  0  0  0  0  0  0  0  0  0  0
   25.4390   12.1100    4.0580 N   0  0  0  0  0  0  0  0  0  0  0  0
   26.0420   12.8630    2.6700 S   0  0  0  0  0  6  0  0  0  0  0  0
   27.1340   12.0060    2.2500 O   0  0  0  0  0  0  0  0  0  0  0  0
   24.8850   13.0730    1.8190 O   0  0  0  0  0  0  0  0  0  0  0  0
   26.6760   14.3120    3.0970 O   0  0  0  0  0  0  0  0  0  0  0  0
   27.4080   14.4080    4.2540 C   0  0  0  0  0  0  0  0  0  0  0  0
   28.7770   14.1470    4.2250 C   0  0  0  0  0  0  0  0  0  0  0  0
   29.5150   14.2730    5.3950 C   0  0  0  0  0  0  0  0  0  0  0  0
   28.8770   14.6460    6.5810 C   0  0  0  0  0  0  0  0  0  0  0  0
   27.5090   14.8810    6.6400 C   0  0  0  0  0  0  0  0  0  0  0  0
   26.9590   15.2260    7.8160 N   0  0  0  0  0  0  0  0  0  0  0  0
   25.6240   15.4630    7.8890 C   0  0  0  0  0  0  0  0  0  0  0  0
   25.1180   15.8620    9.2190 C   0  0  0  0  0  0  0  0  0  0  0  0
   23.8960   15.3540    9.7370 C   0  0  0  0  0  0  0  0  0  0  0  0
   23.4130   15.7290   10.9960 C   0  0  0  0  0  0  0  0  0  0  0  0
   24.1680   16.6240   11.7240 C   0  0  0  0  0  0  0  0  0  0  0  0
   25.3640   17.1510   11.2540 C   0  0  0  0  0  0  0  0  0  0  0  0
   25.8480   16.7800   10.0090 C   0  0  0  0  0  0  0  0  0  0  0  0
   25.9520   18.0710   12.2690 C   0  0  0  0  0  0  0  0  0  0  0  0
   24.9250   18.1030   13.3030 N   0  0  0  0  0  0  0  0  0  0  0  0
   25.1750   18.7230   14.5990 C   0  0  1  0  0  0  0  0  0  0  0  0
   26.2230   17.9910   15.4390 C   0  0  0  0  0  0  0  0  0  0  0  0
   26.3590   18.6830   16.7860 C   0  0  0  0  0  0  0  0  0  0  0  0
   26.7110   20.1420   16.6210 C   0  0  0  0  0  0  0  0  0  0  0  0
   27.2680   20.7860   17.5060 O   0  0  0  0  0  0  0  0  0  0  0  0
   26.3010   20.7470   15.4580 N   0  0  0  0  0  0  0  0  0  0  0  0
   25.5460   20.2060   14.4440 C   0  0  0  0  0  0  0  0  0  0  0  0
   25.1230   20.9210   13.5370 O   0  0  0  0  0  0  0  0  0  0  0  0
   23.9130   17.1870   13.0540 C   0  0  0  0  0  0  0  0  0  0  0  0
   22.9870   16.8670   13.7730 O   0  0  0  0  0  0  0  0  0  0  0  0
   24.8010   15.3210    6.7780 C   0  0  0  0  0  0  0  0  0  0  0  0
   25.3680   14.9600    5.5580 C   0  0  0  0  0  0  0  0  0  0  0  0
   26.7530   14.7450    5.4600 C   0  0  0  0  0  0  0  0  0  0  0  0
   24.1460   12.1880    4.4650 C   0  0  0  0  0  0  0  0  0  0  0  0
   24.0160   11.7000    5.6810 N   0  0  0  0  0  0  0  0  0  0  0  0
   24.7464    9.1845    8.6779 H   0  0  0  0  0  0  0  0  0  0  0  0
   23.8606    9.4192    7.1330 H   0  0  0  0  0  0  0  0  0  0  0  0
   25.4708    8.6230    7.1330 H   0  0  0  0  0  0  0  0  0  0  0  0
   25.1221   11.4502    8.1793 H   0  0  0  0  0  0  0  0  0  0  0  0
   26.6071   10.6146    7.5495 H   0  0  0  0  0  0  0  0  0  0  0  0
   27.2819   11.4095    5.0761 H   0  0  0  0  0  0  0  0  0  0  0  0
   29.2667   13.8451    3.2874 H   0  0  0  0  0  0  0  0  0  0  0  0
   30.5979   14.0798    5.3880 H   0  0  0  0  0  0  0  0  0  0  0  0
   29.4767   14.7570    7.4965 H   0  0  0  0  0  0  0  0  0  0  0  0
   23.3127   14.6453    9.1307 H   0  0  0  0  0  0  0  0  0  0  0  0
   22.4682   15.3255   11.3892 H   0  0  0  0  0  0  0  0  0  0  0  0
   26.7953   17.1977    9.6374 H   0  0  0  0  0  0  0  0  0  0  0  0
   26.8995   17.6743   12.6627 H   0  0  0  0  0  0  0  0  0  0  0  0
   26.1991   19.0648   11.8673 H   0  0  0  0  0  0  0  0  0  0  0  0
   24.2272   18.6459   15.1518 H   0  0  0  0  0  0  0  0  0  0  0  0
   25.9086   16.9480   15.5917 H   0  0  0  0  0  0  0  0  0  0  0  0
   27.1910   18.0069   14.9168 H   0  0  0  0  0  0  0  0  0  0  0  0
   25.4047   18.6038   17.3274 H   0  0  0  0  0  0  0  0  0  0  0  0
   27.1675   18.1925   17.3479 H   0  0  0  0  0  0  0  0  0  0  0  0
   26.5951   21.7258   15.3297 H   0  0  0  0  0  0  0  0  0  0  0  0
   23.7174   15.4913    6.8610 H   0  0  0  0  0  0  0  0  0  0  0  0
   24.7301   14.8430    4.6695 H   0  0  0  0  0  0  0  0  0  0  0  0
   23.3228   12.6008    3.8634 H   0  0  0  0  0  0  0  0  0  0  0  0
  1  2  1  0
  2  3  1  0
  3  4  2  0
  4  5  1  0
  5  6  1  0
  6  7  2  0
  6  8  2  0
  6  9  1  0
  9 10  1  0
 10 11  2  0
 11 12  1  0
 12 13  2  0
 13 14  1  0
 14 15  2  0
 15 16  1  0
 16 17  1  0
 17 18  2  0
 18 19  1  0
 19 20  2  0
 20 21  1  0
 21 22  2  0
 21 23  1  0
 23 24  1  0
 24 25  1  0
 25 26  1  0
 26 27  1  0
 27 28  1  0
 28 29  2  0
 28 30  1  0
 30 31  1  0
 31 32  2  0
 24 33  1  0
 33 34  2  0
 16 35  2  0
 35 36  1  0
 36 37  2  0
  5 38  1  0
 38 39  2  0
 39  3  1  0
 37 10  1  0
 37 14  1  0
 22 17  1  0
 31 25  1  0
 33 20  1  0
  1 40  1  0
  1 41  1  0
  1 42  1  0
  2 43  1  0
  2 44  1  0
  4 45  1  0
 11 46  1  0
 12 47  1  0
 13 48  1  0
 18 49  1  0
 19 50  1  0
 22 51  1  0
 23 52  1  0
 23 53  1  0
 25 54  1  1
 26 55  1  0
 26 56  1  0
 27 57  1  0
 27 58  1  0
 30 59  1  0
 35 60  1  0
 36 61  1  0
 38 62  1  0
M  END
>  <meeko>  (36) 
{"is_sidechain": [true], "free_energy": -14.99, "intermolecular_energy": 0.0, "internal_energy": -14.99, "cluster_size": 19, "cluster_id": 1, "rank_in_cluster": 1}

>  <_RMSD_MCS_to_ref>  (36) 
0.4762229869854378

$$$$
ligand
     RDKit          3D

 60 65  0  0  0  0  0  0  0  0999 V2000
   24.8710    9.6160    7.7820 C   0  0  0  0  0  0  0  0  0  0  0  0
   25.4240   10.9650    7.3490 C   0  0  0  0  0  0  0  0  0  0  0  0
   26.8700   11.1090    7.6730 C   0  0  0  0  0  0  0  0  0  0  0  0
   27.4740   11.9320    8.6030 C   0  0  0  0  0  0  0  0  0  0  0  0
   28.8030   11.6330    8.5010 N   0  0  0  0  0  0  0  0  0  0  0  0
   30.0620   12.4810    9.2310 S   0  0  0  0  0  6  0  0  0  0  0  0
   31.2500   11.6970    8.9500 O   0  0  0  0  0  0  0  0  0  0  0  0
   29.6120   12.7120   10.5910 O   0  0  0  0  0  0  0  0  0  0  0  0
   30.1590   13.9050    8.4480 O   0  0  0  0  0  0  0  0  0  0  0  0
   29.2040   14.2920    7.6180 C   0  0  0  0  0  0  0  0  0  0  0  0
   29.0150   14.3090    6.2530 C   0  0  0  0  0  0  0  0  0  0  0  0
   27.7300   14.8740    6.0320 C   0  0  0  0  0  0  0  0  0  0  0  0
   26.9570   15.1700    4.8970 C   0  0  0  0  0  0  0  0  0  0  0  0
   25.6960   15.7480    5.0760 C   0  0  0  0  0  0  0  0  0  0  0  0
   25.2100   16.0280    6.3570 C   0  0  0  0  0  0  0  0  0  0  0  0
   25.9540   15.7450    7.5200 C   0  0  0  0  0  0  0  0  0  0  0  0
   25.4570   16.0350    8.8700 C   0  0  0  0  0  0  0  0  0  0  0  0
   24.1800   15.5800    9.2870 C   0  0  0  0  0  0  0  0  0  0  0  0
   23.6820   15.8550   10.5650 C   0  0  0  0  0  0  0  0  0  0  0  0
   24.4860   16.5880   11.4120 C   0  0  0  0  0  0  0  0  0  0  0  0
   25.7430   17.0530   11.0400 C   0  0  0  0  0  0  0  0  0  0  0  0
   26.2390   16.7870    9.7730 C   0  0  0  0  0  0  0  0  0  0  0  0
   26.3580   17.8220   12.1610 C   0  0  0  0  0  0  0  0  0  0  0  0
   25.3730   17.6720   13.2260 N   0  0  0  0  0  0  0  0  0  0  0  0
   25.3960   18.4490   14.4590 C   0  0  1  0  0  0  0  0  0  0  0  0
   26.3080   17.8350   15.5180 C   0  0  0  0  0  0  0  0  0  0  0  0
   26.2090   18.6460   16.8000 C   0  0  0  0  0  0  0  0  0  0  0  0
   26.5300   20.1010   16.5520 C   0  0  0  0  0  0  0  0  0  0  0  0
   27.1320   20.7900   17.3700 O   0  0  0  0  0  0  0  0  0  0  0  0
   26.1010   20.6290   15.3610 N   0  0  0  0  0  0  0  0  0  0  0  0
   25.8200   19.9090   14.2230 C   0  0  0  0  0  0  0  0  0  0  0  0
   25.9270   20.4340   13.1160 O   0  0  0  0  0  0  0  0  0  0  0  0
   24.2280   17.0220   12.7890 C   0  0  0  0  0  0  0  0  0  0  0  0
   23.1960   16.8320   13.4040 O   0  0  0  0  0  0  0  0  0  0  0  0
   27.2130   15.1660    7.2920 C   0  0  0  0  0  0  0  0  0  0  0  0
   28.1200   14.8100    8.2520 O   0  0  0  0  0  0  0  0  0  0  0  0
   28.9810   10.7380    7.4960 C   0  0  0  0  0  0  0  0  0  0  0  0
   27.8210   10.3760    6.9900 N   0  0  0  0  0  0  0  0  0  0  0  0
   24.8497    9.5640    8.8806 H   0  0  0  0  0  0  0  0  0  0  0  0
   23.8507    9.4948    7.3893 H   0  0  0  0  0  0  0  0  0  0  0  0
   25.5127    8.8135    7.3893 H   0  0  0  0  0  0  0  0  0  0  0  0
   25.2922   11.0698    6.2620 H   0  0  0  0  0  0  0  0  0  0  0  0
   24.8755   11.7465    7.8953 H   0  0  0  0  0  0  0  0  0  0  0  0
   26.9947   12.6613    9.2726 H   0  0  0  0  0  0  0  0  0  0  0  0
   29.7197   13.9551    5.4860 H   0  0  0  0  0  0  0  0  0  0  0  0
   27.3359   14.9516    3.8877 H   0  0  0  0  0  0  0  0  0  0  0  0
   25.0783   15.9855    4.1974 H   0  0  0  0  0  0  0  0  0  0  0  0
   24.2144   16.4841    6.4603 H   0  0  0  0  0  0  0  0  0  0  0  0
   23.5650   14.9954    8.5870 H   0  0  0  0  0  0  0  0  0  0  0  0
   22.6897   15.5010   10.8812 H   0  0  0  0  0  0  0  0  0  0  0  0
   27.2308   17.1578    9.4748 H   0  0  0  0  0  0  0  0  0  0  0  0
   27.3274   17.3920   12.4530 H   0  0  0  0  0  0  0  0  0  0  0  0
   26.5723   18.8706   11.9071 H   0  0  0  0  0  0  0  0  0  0  0  0
   24.3600   18.4325   14.8283 H   0  0  0  0  0  0  0  0  0  0  0  0
   25.9967   16.7984   15.7143 H   0  0  0  0  0  0  0  0  0  0  0  0
   27.3472   17.8423   15.1575 H   0  0  0  0  0  0  0  0  0  0  0  0
   25.1860   18.5668   17.1966 H   0  0  0  0  0  0  0  0  0  0  0  0
   26.9368   18.2468   17.5218 H   0  0  0  0  0  0  0  0  0  0  0  0
   25.9790   21.6507   15.3148 H   0  0  0  0  0  0  0  0  0  0  0  0
   29.9580   10.3671    7.1525 H   0  0  0  0  0  0  0  0  0  0  0  0
  1  2  1  0
  2  3  1  0
  3  4  2  0
  4  5  1  0
  5  6  1  0
  6  7  2  0
  6  8  2  0
  6  9  1  0
  9 10  1  0
 10 11  2  0
 11 12  1  0
 12 13  2  0
 13 14  1  0
 14 15  2  0
 15 16  1  0
 16 17  1  0
 17 18  2  0
 18 19  1  0
 19 20  2  0
 20 21  1  0
 21 22  2  0
 21 23  1  0
 23 24  1  0
 24 25  1  0
 25 26  1  0
 26 27  1  0
 27 28  1  0
 28 29  2  0
 28 30  1  0
 30 31  1  0
 31 32  2  0
 24 33  1  0
 33 34  2  0
 16 35  2  0
 35 36  1  0
  5 37  1  0
 37 38  2  0
 38  3  1  0
 36 10  1  0
 35 12  1  0
 22 17  1  0
 31 25  1  0
 33 20  1  0
  1 39  1  0
  1 40  1  0
  1 41  1  0
  2 42  1  0
  2 43  1  0
  4 44  1  0
 11 45  1  0
 13 46  1  0
 14 47  1  0
 15 48  1  0
 18 49  1  0
 19 50  1  0
 22 51  1  0
 23 52  1  0
 23 53  1  0
 25 54  1  1
 26 55  1  0
 26 56  1  0
 27 57  1  0
 27 58  1  0
 30 59  1  0
 37 60  1  0
M  END
>  <meeko>  (37) 
{"is_sidechain": [true], "free_energy": -14.99, "intermolecular_energy": 0.0, "internal_energy": -14.99, "cluster_size": 17, "cluster_id": 1, "rank_in_cluster": 1}

>  <_RMSD_MCS_to_ref>  (37) 
0.6471102566105154

$$$$
ligand
     RDKit          3D

 62 67  0  0  0  0  0  0  0  0999 V2000
   24.8710    9.6170    7.7820 C   0  0  0  0  0  0  0  0  0  0  0  0
   25.4240   10.9640    7.3490 C   0  0  0  0  0  0  0  0  0  0  0  0
   26.6960   11.3010    8.0460 C   0  0  0  0  0  0  0  0  0  0  0  0
   27.9940   11.2000    7.5850 C   0  0  0  0  0  0  0  0  0  0  0  0
   28.7590   11.6490    8.6240 N   0  0  0  0  0  0  0  0  0  0  0  0
   30.3780   12.1180    8.5250 S   0  0  0  0  0  6  0  0  0  0  0  0
   31.0510   10.9980    7.8930 O   0  0  0  0  0  0  0  0  0  0  0  0
   30.7160   12.5300    9.8750 O   0  0  0  0  0  0  0  0  0  0  0  0
   30.4080   13.4480    7.5640 O   0  0  0  0  0  0  0  0  0  0  0  0
   29.5780   13.5020    6.4720 C   0  0  0  0  0  0  0  0  0  0  0  0
   30.0710   13.0550    5.2420 C   0  0  0  0  0  0  0  0  0  0  0  0
   29.2540   13.0970    4.1160 C   0  0  0  0  0  0  0  0  0  0  0  0
   27.9540   13.5880    4.2190 C   0  0  0  0  0  0  0  0  0  0  0  0
   27.4620   14.0590    5.4500 C   0  0  0  0  0  0  0  0  0  0  0  0
   26.1660   14.5520    5.5950 C   0  0  0  0  0  0  0  0  0  0  0  0
   25.6410   15.0060    6.7560 N   0  0  0  0  0  0  0  0  0  0  0  0
   26.4340   15.0130    7.8540 C   0  0  0  0  0  0  0  0  0  0  0  0
   25.7950   15.4840    9.1050 C   0  0  0  0  0  0  0  0  0  0  0  0
   24.5080   15.0380    9.5120 C   0  0  0  0  0  0  0  0  0  0  0  0
   23.8940   15.5060   10.6800 C   0  0  0  0  0  0  0  0  0  0  0  0
   24.5870   16.4250   11.4370 C   0  0  0  0  0  0  0  0  0  0  0  0
   25.8530   16.8800   11.0870 C   0  0  0  0  0  0  0  0  0  0  0  0
   26.4630   16.4190    9.9310 C   0  0  0  0  0  0  0  0  0  0  0  0
   26.3520   17.8540   12.1010 C   0  0  0  0  0  0  0  0  0  0  0  0
   25.2330   17.9330   13.0340 N   0  0  0  0  0  0  0  0  0  0  0  0
   25.2960   18.6080   14.3270 C   0  0  1  0  0  0  0  0  0  0  0  0
   26.2900   17.9080   15.2560 C   0  0  0  0  0  0  0  0  0  0  0  0
   26.2430   18.5480   16.6350 C   0  0  0  0  0  0  0  0  0  0  0  0
   26.5080   20.0310   16.5580 C   0  0  0  0  0  0  0  0  0  0  0  0
   27.0730   20.6470   17.4570 O   0  0  0  0  0  0  0  0  0  0  0  0
   26.0540   20.6790   15.4370 N   0  0  0  0  0  0  0  0  0  0  0  0
   25.6270   20.1080   14.2600 C   0  0  0  0  0  0  0  0  0  0  0  0
   25.5020   20.8010   13.2530 O   0  0  0  0  0  0  0  0  0  0  0  0
   24.2050   17.0680   12.6990 C   0  0  0  0  0  0  0  0  0  0  0  0
   23.1880   16.8380   13.3250 O   0  0  0  0  0  0  0  0  0  0  0  0
   27.7510   14.5570    7.7960 C   0  0  0  0  0  0  0  0  0  0  0  0
   28.2800   14.0440    6.5940 C   0  0  0  0  0  0  0  0  0  0  0  0
   27.9420   12.0380    9.6390 C   0  0  0  0  0  0  0  0  0  0  0  0
   26.6820   11.8310    9.3220 N   0  0  0  0  0  0  0  0  0  0  0  0
   24.8498    9.5653    8.8806 H   0  0  0  0  0  0  0  0  0  0  0  0
   23.8505    9.4962    7.3895 H   0  0  0  0  0  0  0  0  0  0  0  0
   25.5122    8.8140    7.3895 H   0  0  0  0  0  0  0  0  0  0  0  0
   25.6101   10.9385    6.2652 H   0  0  0  0  0  0  0  0  0  0  0  0
   24.6821   11.7330    7.6103 H   0  0  0  0  0  0  0  0  0  0  0  0
   28.3348   10.8395    6.6032 H   0  0  0  0  0  0  0  0  0  0  0  0
   31.0993   12.6721    5.1648 H   0  0  0  0  0  0  0  0  0  0  0  0
   29.6339   12.7431    3.1462 H   0  0  0  0  0  0  0  0  0  0  0  0
   27.3067   13.6075    3.3299 H   0  0  0  0  0  0  0  0  0  0  0  0
   25.5247   14.5733    4.7016 H   0  0  0  0  0  0  0  0  0  0  0  0
   23.9779   14.3020    8.8897 H   0  0  0  0  0  0  0  0  0  0  0  0
   22.8966   15.1535   10.9816 H   0  0  0  0  0  0  0  0  0  0  0  0
   27.4652   16.7795    9.6559 H   0  0  0  0  0  0  0  0  0  0  0  0
   27.2596   17.4813   12.5983 H   0  0  0  0  0  0  0  0  0  0  0  0
   26.6385   18.8263   11.6738 H   0  0  0  0  0  0  0  0  0  0  0  0
   24.2739   18.5387   14.7276 H   0  0  0  0  0  0  0  0  0  0  0  0
   26.0260   16.8433   15.3381 H   0  0  0  0  0  0  0  0  0  0  0  0
   27.3049   18.0068   14.8435 H   0  0  0  0  0  0  0  0  0  0  0  0
   25.2474   18.3838   17.0729 H   0  0  0  0  0  0  0  0  0  0  0  0
   27.0225   18.0871   17.2594 H   0  0  0  0  0  0  0  0  0  0  0  0
   26.0301   21.7078   15.4814 H   0  0  0  0  0  0  0  0  0  0  0  0
   28.3823   14.5980    8.6959 H   0  0  0  0  0  0  0  0  0  0  0  0
   28.2864   12.4660   10.5920 H   0  0  0  0  0  0  0  0  0  0  0  0
  1  2  1  0
  2  3  1  0
  3  4  2  0
  4  5  1  0
  5  6  1  0
  6  7  2  0
  6  8  2  0
  6  9  1  0
  9 10  1  0
 10 11  2  0
 11 12  1  0
 12 13  2  0
 13 14  1  0
 14 15  2  0
 15 16  1  0
 16 17  2  0
 17 18  1  0
 18 19  2  0
 19 20  1  0
 20 21  2  0
 21 22  1  0
 22 23  2  0
 22 24  1  0
 24 25  1  0
 25 26  1  0
 26 27  1  0
 27 28  1  0
 28 29  1  0
 29 30  2  0
 29 31  1  0
 31 32  1  0
 32 33  2  0
 25 34  1  0
 34 35  2  0
 17 36  1  0
 36 37  2  0
  5 38  1  0
 38 39  2  0
 39  3  1  0
 37 10  1  0
 37 14  1  0
 23 18  1  0
 32 26  1  0
 34 21  1  0
  1 40  1  0
  1 41  1  0
  1 42  1  0
  2 43  1  0
  2 44  1  0
  4 45  1  0
 11 46  1  0
 12 47  1  0
 13 48  1  0
 15 49  1  0
 19 50  1  0
 20 51  1  0
 23 52  1  0
 24 53  1  0
 24 54  1  0
 26 55  1  1
 27 56  1  0
 27 57  1  0
 28 58  1  0
 28 59  1  0
 31 60  1  0
 36 61  1  0
 38 62  1  0
M  END
>  <meeko>  (38) 
{"is_sidechain": [true], "free_energy": -14.97, "intermolecular_energy": 0.0, "internal_energy": -14.97, "cluster_size": 14, "cluster_id": 1, "rank_in_cluster": 1}

>  <_RMSD_MCS_to_ref>  (38) 
0.6892051867721863

$$$$
ligand
     RDKit          3D

 60 65  0  0  0  0  0  0  0  0999 V2000
   24.8710    9.6160    7.7820 C   0  0  0  0  0  0  0  0  0  0  0  0
   25.4240   10.9650    7.3490 C   0  0  0  0  0  0  0  0  0  0  0  0
   24.9670   11.3490    5.9860 C   0  0  0  0  0  0  0  0  0  0  0  0
   24.0200   12.2860    5.6200 C   0  0  0  0  0  0  0  0  0  0  0  0
   23.9740   12.1990    4.2560 N   0  0  0  0  0  0  0  0  0  0  0  0
   23.1700   13.2670    3.2270 S   0  0  0  0  0  6  0  0  0  0  0  0
   21.8120   13.3050    3.7380 O   0  0  0  0  0  0  0  0  0  0  0  0
   23.4700   12.7740    1.8940 O   0  0  0  0  0  0  0  0  0  0  0  0
   23.8810   14.7110    3.4550 O   0  0  0  0  0  0  0  0  0  0  0  0
   25.1450   14.8860    3.8860 C   0  0  0  0  0  0  0  0  0  0  0  0
   26.1840   14.7390    2.9950 C   0  0  0  0  0  0  0  0  0  0  0  0
   27.3490   14.9710    3.6700 N   0  0  0  0  0  0  0  0  0  0  0  0
   27.0840   15.2650    4.9870 C   0  0  0  0  0  0  0  0  0  0  0  0
   27.9740   15.5670    6.0230 C   0  0  0  0  0  0  0  0  0  0  0  0
   27.4390   15.8310    7.2880 C   0  0  0  0  0  0  0  0  0  0  0  0
   26.0600   15.7950    7.5280 C   0  0  0  0  0  0  0  0  0  0  0  0
   25.5180   16.0780    8.8700 C   0  0  0  0  0  0  0  0  0  0  0  0
   24.2330   15.5990    9.2460 C   0  0  0  0  0  0  0  0  0  0  0  0
   23.6890   15.8490   10.5130 C   0  0  0  0  0  0  0  0  0  0  0  0
   24.4570   16.5830   11.3910 C   0  0  0  0  0  0  0  0  0  0  0  0
   25.7070   17.0560   11.0470 C   0  0  0  0  0  0  0  0  0  0  0  0
   26.2640   16.8250    9.8020 C   0  0  0  0  0  0  0  0  0  0  0  0
   26.2330   17.7920   12.1940 C   0  0  0  0  0  0  0  0  0  0  0  0
   27.2930   18.3840   12.1970 O   0  0  0  0  0  0  0  0  0  0  0  0
   25.2970   17.6880   13.1880 N   0  0  0  0  0  0  0  0  0  0  0  0
   25.3480   18.3950   14.4590 C   0  0  1  0  0  0  0  0  0  0  0  0
   26.3040   17.7810   15.4790 C   0  0  0  0  0  0  0  0  0  0  0  0
   26.2380   18.5830   16.7700 C   0  0  0  0  0  0  0  0  0  0  0  0
   26.5470   20.0420   16.5270 C   0  0  0  0  0  0  0  0  0  0  0  0
   27.0380   20.7610   17.3920 O   0  0  0  0  0  0  0  0  0  0  0  0
   26.1960   20.5480   15.3010 N   0  0  0  0  0  0  0  0  0  0  0  0
   25.7120   19.8620   14.2090 C   0  0  0  0  0  0  0  0  0  0  0  0
   25.5410   20.4390   13.1370 O   0  0  0  0  0  0  0  0  0  0  0  0
   24.1850   17.0140   12.7600 C   0  0  0  0  0  0  0  0  0  0  0  0
   23.1520   16.7870   13.3610 O   0  0  0  0  0  0  0  0  0  0  0  0
   25.1960   15.4820    6.4580 C   0  0  0  0  0  0  0  0  0  0  0  0
   25.6970   15.2160    5.1630 C   0  0  0  0  0  0  0  0  0  0  0  0
   24.9150   11.3150    3.8360 C   0  0  0  0  0  0  0  0  0  0  0  0
   25.5180   10.7590    4.8660 N   0  0  0  0  0  0  0  0  0  0  0  0
   24.8497    9.5640    8.8806 H   0  0  0  0  0  0  0  0  0  0  0  0
   23.8507    9.4948    7.3893 H   0  0  0  0  0  0  0  0  0  0  0  0
   25.5127    8.8135    7.3893 H   0  0  0  0  0  0  0  0  0  0  0  0
   25.0890   11.7311    8.0638 H   0  0  0  0  0  0  0  0  0  0  0  0
   26.5212   10.8891    7.3282 H   0  0  0  0  0  0  0  0  0  0  0  0
   23.4368   12.9497    6.2753 H   0  0  0  0  0  0  0  0  0  0  0  0
   26.0926   14.4808    1.9296 H   0  0  0  0  0  0  0  0  0  0  0  0
   28.2899   14.9314    3.2527 H   0  0  0  0  0  0  0  0  0  0  0  0
   29.0597   15.5959    5.8484 H   0  0  0  0  0  0  0  0  0  0  0  0
   28.1202   16.0735    8.1170 H   0  0  0  0  0  0  0  0  0  0  0  0
   23.6483   15.0145    8.5204 H   0  0  0  0  0  0  0  0  0  0  0  0
   22.6932   15.4760   10.7943 H   0  0  0  0  0  0  0  0  0  0  0  0
   27.2610   17.2137    9.5473 H   0  0  0  0  0  0  0  0  0  0  0  0
   24.3459   18.3108   14.9047 H   0  0  0  0  0  0  0  0  0  0  0  0
   26.0115   16.7393   15.6773 H   0  0  0  0  0  0  0  0  0  0  0  0
   27.3301   17.8004   15.0831 H   0  0  0  0  0  0  0  0  0  0  0  0
   25.2266   18.4968   17.1940 H   0  0  0  0  0  0  0  0  0  0  0  0
   26.9880   18.1809   17.4670 H   0  0  0  0  0  0  0  0  0  0  0  0
   26.3081   21.5650   15.1827 H   0  0  0  0  0  0  0  0  0  0  0  0
   24.1109   15.4441    6.6346 H   0  0  0  0  0  0  0  0  0  0  0  0
   25.1419   11.0942    2.7826 H   0  0  0  0  0  0  0  0  0  0  0  0
  1  2  1  0
  2  3  1  0
  3  4  2  0
  4  5  1  0
  5  6  1  0
  6  7  2  0
  6  8  2  0
  6  9  1  0
  9 10  1  0
 10 11  2  0
 11 12  1  0
 12 13  1  0
 13 14  2  0
 14 15  1  0
 15 16  2  0
 16 17  1  0
 17 18  2  0
 18 19  1  0
 19 20  2  0
 20 21  1  0
 21 22  2  0
 21 23  1  0
 23 24  2  0
 23 25  1  0
 25 26  1  0
 26 27  1  0
 27 28  1  0
 28 29  1  0
 29 30  2  0
 29 31  1  0
 31 32  1  0
 32 33  2  0
 25 34  1  0
 34 35  2  0
 16 36  1  0
 36 37  2  0
  5 38  1  0
 38 39  2  0
 39  3  1  0
 37 10  1  0
 37 13  1  0
 22 17  1  0
 32 26  1  0
 34 20  1  0
  1 40  1  0
  1 41  1  0
  1 42  1  0
  2 43  1  0
  2 44  1  0
  4 45  1  0
 11 46  1  0
 12 47  1  0
 14 48  1  0
 15 49  1  0
 18 50  1  0
 19 51  1  0
 22 52  1  0
 26 53  1  1
 27 54  1  0
 27 55  1  0
 28 56  1  0
 28 57  1  0
 31 58  1  0
 36 59  1  0
 38 60  1  0
M  END
>  <meeko>  (39) 
{"is_sidechain": [true], "free_energy": -14.93, "intermolecular_energy": 0.0, "internal_energy": -14.93, "cluster_size": 5, "cluster_id": 1, "rank_in_cluster": 1}

>  <_RMSD_MCS_to_ref>  (39) 
0.5873057573628739

$$$$
ligand
     RDKit          3D

 63 68  0  0  0  0  0  0  0  0999 V2000
   24.8540    9.4020    7.6050 C   0  0  0  0  0  0  0  0  0  0  0  0
   25.5230   10.7550    7.4270 C   0  0  0  0  0  0  0  0  0  0  0  0
   25.0130   11.4830    6.2330 C   0  0  0  0  0  0  0  0  0  0  0  0
   25.6650   11.7720    5.0500 C   0  0  0  0  0  0  0  0  0  0  0  0
   24.7470   12.4830    4.3330 N   0  0  0  0  0  0  0  0  0  0  0  0
   24.9690   13.1070    2.7950 S   0  0  0  0  0  6  0  0  0  0  0  0
   23.8030   13.9070    2.4830 O   0  0  0  0  0  0  0  0  0  0  0  0
   25.3660   11.9720    1.9870 O   0  0  0  0  0  0  0  0  0  0  0  0
   26.3410   14.2050    2.7280 C   0  0  0  0  0  0  0  0  0  0  0  0
   27.1620   14.5240    1.6560 C   0  0  0  0  0  0  0  0  0  0  0  0
   28.2600   15.1830    2.2120 C   0  0  0  0  0  0  0  0  0  0  0  0
   28.1530   15.2960    3.5330 N   0  0  0  0  0  0  0  0  0  0  0  0
   26.9000   14.8480    3.8190 N   0  0  0  0  0  0  0  0  0  0  0  0
   26.3960   15.0450    5.1340 C   0  0  0  0  0  0  0  0  0  0  0  0
   25.2550   15.8400    5.3080 C   0  0  0  0  0  0  0  0  0  0  0  0
   24.7900   16.1250    6.5960 C   0  0  0  0  0  0  0  0  0  0  0  0
   25.4330   15.6030    7.7270 C   0  0  0  0  0  0  0  0  0  0  0  0
   24.9850   15.9510    9.0830 C   0  0  0  0  0  0  0  0  0  0  0  0
   23.7950   15.3950    9.6170 C   0  0  0  0  0  0  0  0  0  0  0  0
   23.3550   15.7160   10.9040 C   0  0  0  0  0  0  0  0  0  0  0  0
   24.1210   16.6010   11.6350 C   0  0  0  0  0  0  0  0  0  0  0  0
   25.2930   17.1640   11.1410 C   0  0  0  0  0  0  0  0  0  0  0  0
   25.7390   16.8480    9.8680 C   0  0  0  0  0  0  0  0  0  0  0  0
   25.9030   18.0560   12.1690 C   0  0  0  0  0  0  0  0  0  0  0  0
   24.9140   18.0340   13.2390 N   0  0  0  0  0  0  0  0  0  0  0  0
   25.2030   18.6070   14.5480 C   0  0  1  0  0  0  0  0  0  0  0  0
   26.2980   17.8660   15.3160 C   0  0  0  0  0  0  0  0  0  0  0  0
   26.4740   18.5060   16.6840 C   0  0  0  0  0  0  0  0  0  0  0  0
   26.7890   19.9780   16.5650 C   0  0  0  0  0  0  0  0  0  0  0  0
   27.3660   20.5980   17.4540 O   0  0  0  0  0  0  0  0  0  0  0  0
   26.3220   20.6200   15.4450 N   0  0  0  0  0  0  0  0  0  0  0  0
   25.5360   20.1030   14.4400 C   0  0  0  0  0  0  0  0  0  0  0  0
   25.0610   20.8440   13.5810 O   0  0  0  0  0  0  0  0  0  0  0  0
   23.9070   17.1110   12.9930 C   0  0  0  0  0  0  0  0  0  0  0  0
   23.0130   16.7520   13.7340 O   0  0  0  0  0  0  0  0  0  0  0  0
   26.5260   14.7450    7.5300 C   0  0  0  0  0  0  0  0  0  0  0  0
   26.9980   14.4540    6.2450 C   0  0  0  0  0  0  0  0  0  0  0  0
   23.5800   12.5340    5.0230 C   0  0  0  0  0  0  0  0  0  0  0  0
   23.7180   11.9630    6.2020 N   0  0  0  0  0  0  0  0  0  0  0  0
   24.7464    9.1845    8.6779 H   0  0  0  0  0  0  0  0  0  0  0  0
   23.8606    9.4192    7.1330 H   0  0  0  0  0  0  0  0  0  0  0  0
   25.4708    8.6230    7.1330 H   0  0  0  0  0  0  0  0  0  0  0  0
   25.3316   11.3651    8.3221 H   0  0  0  0  0  0  0  0  0  0  0  0
   26.5997   10.5823    7.2822 H   0  0  0  0  0  0  0  0  0  0  0  0
   26.6873   11.4936    4.7544 H   0  0  0  0  0  0  0  0  0  0  0  0
   26.9852   14.3042    0.5928 H   0  0  0  0  0  0  0  0  0  0  0  0
   29.1112   15.5630    1.6280 H   0  0  0  0  0  0  0  0  0  0  0  0
   24.7248   16.2401    4.4311 H   0  0  0  0  0  0  0  0  0  0  0  0
   23.9068   16.7682    6.7233 H   0  0  0  0  0  0  0  0  0  0  0  0
   23.2056   14.6961    9.0053 H   0  0  0  0  0  0  0  0  0  0  0  0
   22.4339   15.2802   11.3182 H   0  0  0  0  0  0  0  0  0  0  0  0
   26.6668   17.2898    9.4755 H   0  0  0  0  0  0  0  0  0  0  0  0
   26.8697   17.6606   12.5141 H   0  0  0  0  0  0  0  0  0  0  0  0
   26.1202   19.0677   11.7958 H   0  0  0  0  0  0  0  0  0  0  0  0
   24.2797   18.4863   15.1336 H   0  0  0  0  0  0  0  0  0  0  0  0
   26.0114   16.8110   15.4381 H   0  0  0  0  0  0  0  0  0  0  0  0
   27.2438   17.9248   14.7575 H   0  0  0  0  0  0  0  0  0  0  0  0
   25.5442   18.3839   17.2589 H   0  0  0  0  0  0  0  0  0  0  0  0
   27.3143   18.0113   17.1931 H   0  0  0  0  0  0  0  0  0  0  0  0
   26.5926   21.6087   15.3444 H   0  0  0  0  0  0  0  0  0  0  0  0
   27.0210   14.2927    8.4020 H   0  0  0  0  0  0  0  0  0  0  0  0
   27.8417   13.7609    6.1114 H   0  0  0  0  0  0  0  0  0  0  0  0
   22.6499   12.9881    4.6505 H   0  0  0  0  0  0  0  0  0  0  0  0
  1  2  1  0
  2  3  1  0
  3  4  2  0
  4  5  1  0
  5  6  1  0
  6  7  2  0
  6  8  2  0
  6  9  1  0
  9 10  2  0
 10 11  1  0
 11 12  2  0
 12 13  1  0
 13 14  1  0
 14 15  2  0
 15 16  1  0
 16 17  2  0
 17 18  1  0
 18 19  2  0
 19 20  1  0
 20 21  2  0
 21 22  1  0
 22 23  2  0
 22 24  1  0
 24 25  1  0
 25 26  1  0
 26 27  1  0
 27 28  1  0
 28 29  1  0
 29 30  2  0
 29 31  1  0
 31 32  1  0
 32 33  2  0
 25 34  1  0
 34 35  2  0
 17 36  1  0
 36 37  2  0
  5 38  1  0
 38 39  2  0
 39  3  1  0
 13  9  1  0
 37 14  1  0
 23 18  1  0
 32 26  1  0
 34 21  1  0
  1 40  1  0
  1 41  1  0
  1 42  1  0
  2 43  1  0
  2 44  1  0
  4 45  1  0
 10 46  1  0
 11 47  1  0
 15 48  1  0
 16 49  1  0
 19 50  1  0
 20 51  1  0
 23 52  1  0
 24 53  1  0
 24 54  1  0
 26 55  1  1
 27 56  1  0
 27 57  1  0
 28 58  1  0
 28 59  1  0
 31 60  1  0
 36 61  1  0
 37 62  1  0
 38 63  1  0
M  END
>  <meeko>  (40) 
{"is_sidechain": [true], "free_energy": -14.91, "intermolecular_energy": 0.0, "internal_energy": -14.91, "cluster_size": 10, "cluster_id": 1, "rank_in_cluster": 1}

>  <_RMSD_MCS_to_ref>  (40) 
0.41208629085558096

$$$$
ligand
     RDKit          3D

 64 68  0  0  0  0  0  0  0  0999 V2000
   24.8540    9.4020    7.6050 C   0  0  0  0  0  0  0  0  0  0  0  0
   25.5230   10.7550    7.4270 C   0  0  0  0  0  0  0  0  0  0  0  0
   27.0070   10.6600    7.4910 C   0  0  0  0  0  0  0  0  0  0  0  0
   27.9500   11.6490    7.2880 C   0  0  0  0  0  0  0  0  0  0  0  0
   29.1420   11.0170    7.4900 N   0  0  0  0  0  0  0  0  0  0  0  0
   30.6670   11.7160    7.4560 S   0  0  0  0  0  6  0  0  0  0  0  0
   31.5010   10.7830    8.1910 O   0  0  0  0  0  0  0  0  0  0  0  0
   30.9390   12.0600    6.0730 O   0  0  0  0  0  0  0  0  0  0  0  0
   30.5160   13.2230    8.4010 C   0  0  0  0  0  0  0  0  0  0  0  0
   31.3510   13.3390    9.5220 C   0  0  0  0  0  0  0  0  0  0  0  0
   31.2850   14.4660   10.3320 C   0  0  0  0  0  0  0  0  0  0  0  0
   30.3790   15.4780   10.0360 C   0  0  0  0  0  0  0  0  0  0  0  0
   29.5190   15.3850    8.9240 C   0  0  0  0  0  0  0  0  0  0  0  0
   29.6160   14.2610    8.0630 C   0  0  0  0  0  0  0  0  0  0  0  0
   28.7250   14.2160    6.8420 C   0  0  0  0  0  0  0  0  0  0  0  0
   28.1850   15.5910    6.4460 C   0  0  0  0  0  0  0  0  0  0  0  0
   27.5340   16.2100    7.5970 N   0  0  0  0  0  0  0  0  0  0  0  0
   28.5540   16.5380    8.6360 C   0  0  1  0  0  0  0  0  0  0  0  0
   27.7900   16.9920    9.9170 C   0  0  0  0  0  0  0  0  0  0  0  0
   28.3320   17.6910   10.7700 O   0  0  0  0  0  0  0  0  0  0  0  0
   26.4980   16.4930    9.9570 N   0  0  0  0  0  0  0  0  0  0  0  0
   25.5350   16.6280   10.9700 C   0  0  0  0  0  0  0  0  0  0  0  0
   24.3110   15.9830   10.7770 C   0  0  0  0  0  0  0  0  0  0  0  0
   23.3020   16.0720   11.7380 C   0  0  0  0  0  0  0  0  0  0  0  0
   23.5110   16.8040   12.9050 C   0  0  0  0  0  0  0  0  0  0  0  0
   24.7350   17.4490   13.1280 C   0  0  0  0  0  0  0  0  0  0  0  0
   24.9890   18.2790   14.3760 C   0  0  1  0  0  0  0  0  0  0  0  0
   26.1140   17.6480   15.2030 C   0  0  0  0  0  0  0  0  0  0  0  0
   26.3210   18.4400   16.4830 C   0  0  0  0  0  0  0  0  0  0  0  0
   26.6210   19.8870   16.1810 C   0  0  0  0  0  0  0  0  0  0  0  0
   27.2580   20.6010   16.9490 O   0  0  0  0  0  0  0  0  0  0  0  0
   26.0870   20.3920   15.0230 N   0  0  0  0  0  0  0  0  0  0  0  0
   25.3000   19.7490   14.0930 C   0  0  0  0  0  0  0  0  0  0  0  0
   24.8530   20.3810   13.1380 O   0  0  0  0  0  0  0  0  0  0  0  0
   25.7390   17.3570   12.1450 C   0  0  0  0  0  0  0  0  0  0  0  0
   28.9150    9.7070    7.7620 C   0  0  0  0  0  0  0  0  0  0  0  0
   27.6220    9.4610    7.7950 N   0  0  0  0  0  0  0  0  0  0  0  0
   24.7464    9.1845    8.6779 H   0  0  0  0  0  0  0  0  0  0  0  0
   23.8606    9.4192    7.1330 H   0  0  0  0  0  0  0  0  0  0  0  0
   25.4708    8.6230    7.1330 H   0  0  0  0  0  0  0  0  0  0  0  0
   25.2360   11.1662    6.4479 H   0  0  0  0  0  0  0  0  0  0  0  0
   25.1902   11.4074    8.2477 H   0  0  0  0  0  0  0  0  0  0  0  0
   27.7791   12.7032    7.0243 H   0  0  0  0  0  0  0  0  0  0  0  0
   32.0615   12.5339    9.7610 H   0  0  0  0  0  0  0  0  0  0  0  0
   31.9478   14.5572   11.2051 H   0  0  0  0  0  0  0  0  0  0  0  0
   30.3328   16.3674   10.6816 H   0  0  0  0  0  0  0  0  0  0  0  0
   29.3049   13.8111    5.9995 H   0  0  0  0  0  0  0  0  0  0  0  0
   27.8610   13.5813    7.0881 H   0  0  0  0  0  0  0  0  0  0  0  0
   29.0162   16.2278    6.1089 H   0  0  0  0  0  0  0  0  0  0  0  0
   27.4555   15.4767    5.6307 H   0  0  0  0  0  0  0  0  0  0  0  0
   27.0596   17.0740    7.2982 H   0  0  0  0  0  0  0  0  0  0  0  0
   29.1989   17.3476    8.2636 H   0  0  0  0  0  0  0  0  0  0  0  0
   26.2044   15.9498    9.1326 H   0  0  0  0  0  0  0  0  0  0  0  0
   24.1406   15.3999    9.8599 H   0  0  0  0  0  0  0  0  0  0  0  0
   22.3406   15.5634   11.5735 H   0  0  0  0  0  0  0  0  0  0  0  0
   22.7104   16.8761   13.6559 H   0  0  0  0  0  0  0  0  0  0  0  0
   24.0479   18.2746   14.9455 H   0  0  0  0  0  0  0  0  0  0  0  0
   25.8445   16.6117   15.4548 H   0  0  0  0  0  0  0  0  0  0  0  0
   27.0444   17.6580   14.6163 H   0  0  0  0  0  0  0  0  0  0  0  0
   25.4079   18.3818   17.0936 H   0  0  0  0  0  0  0  0  0  0  0  0
   27.1759   18.0109   17.0261 H   0  0  0  0  0  0  0  0  0  0  0  0
   26.3021   21.3792   14.8229 H   0  0  0  0  0  0  0  0  0  0  0  0
   26.7002   17.8675   12.3045 H   0  0  0  0  0  0  0  0  0  0  0  0
   29.7009    8.9561    7.9311 H   0  0  0  0  0  0  0  0  0  0  0  0
  1  2  1  0
  2  3  1  0
  3  4  2  0
  4  5  1  0
  5  6  1  0
  6  7  2  0
  6  8  2  0
  6  9  1  0
  9 10  2  0
 10 11  1  0
 11 12  2  0
 12 13  1  0
 13 14  2  0
 14 15  1  0
 15 16  1  0
 16 17  1  0
 17 18  1  0
 18 19  1  0
 19 20  2  0
 19 21  1  0
 21 22  1  0
 22 23  2  0
 23 24  1  0
 24 25  2  0
 25 26  1  0
 26 27  1  0
 27 28  1  0
 28 29  1  0
 29 30  1  0
 30 31  2  0
 30 32  1  0
 32 33  1  0
 33 34  2  0
 26 35  2  0
  5 36  1  0
 36 37  2  0
 37  3  1  0
 14  9  1  0
 35 22  1  0
 18 13  1  0
 33 27  1  0
  1 38  1  0
  1 39  1  0
  1 40  1  0
  2 41  1  0
  2 42  1  0
  4 43  1  0
 10 44  1  0
 11 45  1  0
 12 46  1  0
 15 47  1  0
 15 48  1  0
 16 49  1  0
 16 50  1  0
 17 51  1  0
 18 52  1  6
 21 53  1  0
 23 54  1  0
 24 55  1  0
 25 56  1  0
 27 57  1  1
 28 58  1  0
 28 59  1  0
 29 60  1  0
 29 61  1  0
 32 62  1  0
 35 63  1  0
 36 64  1  0
M  END
>  <meeko>  (41) 
{"is_sidechain": [true], "free_energy": -14.89, "intermolecular_energy": 0.0, "internal_energy": -14.89, "cluster_size": 20, "cluster_id": 1, "rank_in_cluster": 1}

>  <_RMSD_MCS_to_ref>  (41) 
0.4505804589637682

$$$$
ligand
     RDKit          3D

 60 65  0  0  0  0  0  0  0  0999 V2000
   24.8540    9.4020    7.6050 C   0  0  0  0  0  0  0  0  0  0  0  0
   25.5230   10.7550    7.4270 C   0  0  0  0  0  0  0  0  0  0  0  0
   26.9530   10.6230    7.0390 C   0  0  0  0  0  0  0  0  0  0  0  0
   28.0710   10.5820    7.8500 C   0  0  0  0  0  0  0  0  0  0  0  0
   29.1150   10.4890    6.9750 N   0  0  0  0  0  0  0  0  0  0  0  0
   30.7610   10.5300    7.3420 S   0  0  0  0  0  6  0  0  0  0  0  0
   31.0210    9.3490    8.1450 O   0  0  0  0  0  0  0  0  0  0  0  0
   31.3950   10.6900    6.0430 O   0  0  0  0  0  0  0  0  0  0  0  0
   31.0870   11.8700    8.2100 O   0  0  0  0  0  0  0  0  0  0  0  0
   30.1310   12.7600    8.5020 C   0  0  0  0  0  0  0  0  0  0  0  0
   30.0200   13.9580    7.8370 C   0  0  0  0  0  0  0  0  0  0  0  0
   28.9010   14.5570    8.3560 N   0  0  0  0  0  0  0  0  0  0  0  0
   28.2990   15.7650    8.0250 C   0  0  0  0  0  0  0  0  0  0  0  0
   27.1730   16.1290    8.6600 C   0  0  0  0  0  0  0  0  0  0  0  0
   26.6020   15.2500    9.6870 C   0  0  0  0  0  0  0  0  0  0  0  0
   25.3530   15.5790   10.3920 C   0  0  0  0  0  0  0  0  0  0  0  0
   24.1390   14.9830   10.0070 C   0  0  0  0  0  0  0  0  0  0  0  0
   22.9370   15.2750   10.6820 C   0  0  0  0  0  0  0  0  0  0  0  0
   22.9250   16.1640   11.7550 C   0  0  0  0  0  0  0  0  0  0  0  0
   24.1280   16.7400   12.1180 C   0  0  0  0  0  0  0  0  0  0  0  0
   25.3280   16.4650   11.4620 C   0  0  0  0  0  0  0  0  0  0  0  0
   26.4420   17.2200   12.1110 C   0  0  0  0  0  0  0  0  0  0  0  0
   25.7500   18.0110   13.1200 N   0  0  0  0  0  0  0  0  0  0  0  0
   26.4370   18.7330   14.1850 C   0  0  2  0  0  0  0  0  0  0  0  0
   26.2360   18.0870   15.5520 C   0  0  0  0  0  0  0  0  0  0  0  0
   27.0540   18.8390   16.5920 C   0  0  0  0  0  0  0  0  0  0  0  0
   26.7080   20.3110   16.6000 C   0  0  0  0  0  0  0  0  0  0  0  0
   26.7090   20.9800   17.6290 O   0  0  0  0  0  0  0  0  0  0  0  0
   26.4110   20.8800   15.3880 N   0  0  0  0  0  0  0  0  0  0  0  0
   26.0040   20.2070   14.2590 C   0  0  0  0  0  0  0  0  0  0  0  0
   25.3360   20.7800   13.4020 O   0  0  0  0  0  0  0  0  0  0  0  0
   24.4030   17.6890   13.2010 C   0  0  0  0  0  0  0  0  0  0  0  0
   23.5820   18.0940   14.0010 O   0  0  0  0  0  0  0  0  0  0  0  0
   27.2180   14.0880   10.0070 C   0  0  0  0  0  0  0  0  0  0  0  0
   28.4030   13.6940    9.3250 C   0  0  0  0  0  0  0  0  0  0  0  0
   29.1380   12.6070    9.4240 N   0  0  0  0  0  0  0  0  0  0  0  0
   28.6330   10.4650    5.7050 C   0  0  0  0  0  0  0  0  0  0  0  0
   27.3180   10.5460    5.7070 N   0  0  0  0  0  0  0  0  0  0  0  0
   24.7464    9.1845    8.6779 H   0  0  0  0  0  0  0  0  0  0  0  0
   23.8606    9.4192    7.1330 H   0  0  0  0  0  0  0  0  0  0  0  0
   25.4708    8.6230    7.1330 H   0  0  0  0  0  0  0  0  0  0  0  0
   24.9921   11.3131    6.6418 H   0  0  0  0  0  0  0  0  0  0  0  0
   25.4798   11.2846    8.3901 H   0  0  0  0  0  0  0  0  0  0  0  0
   28.1108   10.6164    8.9487 H   0  0  0  0  0  0  0  0  0  0  0  0
   30.6864   14.3519    7.0555 H   0  0  0  0  0  0  0  0  0  0  0  0
   28.7387   16.4141    7.2535 H   0  0  0  0  0  0  0  0  0  0  0  0
   26.6813   17.0811    8.4116 H   0  0  0  0  0  0  0  0  0  0  0  0
   24.1274   14.2764    9.1641 H   0  0  0  0  0  0  0  0  0  0  0  0
   22.0003   14.7971   10.3592 H   0  0  0  0  0  0  0  0  0  0  0  0
   21.9942   16.3983   12.2924 H   0  0  0  0  0  0  0  0  0  0  0  0
   27.1682   16.5353   12.5735 H   0  0  0  0  0  0  0  0  0  0  0  0
   27.0254   17.8288   11.4046 H   0  0  0  0  0  0  0  0  0  0  0  0
   27.5051   18.6849   13.9263 H   0  0  0  0  0  0  0  0  0  0  0  0
   25.1709   18.1271   15.8238 H   0  0  0  0  0  0  0  0  0  0  0  0
   26.5648   17.0380   15.5144 H   0  0  0  0  0  0  0  0  0  0  0  0
   26.8464   18.4162   17.5861 H   0  0  0  0  0  0  0  0  0  0  0  0
   28.1195   18.7330   16.3403 H   0  0  0  0  0  0  0  0  0  0  0  0
   26.5007   21.9036   15.3164 H   0  0  0  0  0  0  0  0  0  0  0  0
   26.8011   13.4461   10.7970 H   0  0  0  0  0  0  0  0  0  0  0  0
   29.2544   10.3885    4.8006 H   0  0  0  0  0  0  0  0  0  0  0  0
  1  2  1  0
  2  3  1  0
  3  4  2  0
  4  5  1  0
  5  6  1  0
  6  7  2  0
  6  8  2  0
  6  9  1  0
  9 10  1  0
 10 11  2  0
 11 12  1  0
 12 13  1  0
 13 14  2  0
 14 15  1  0
 15 16  1  0
 16 17  2  0
 17 18  1  0
 18 19  2  0
 19 20  1  0
 20 21  2  0
 21 22  1  0
 22 23  1  0
 23 24  1  0
 24 25  1  0
 25 26  1  0
 26 27  1  0
 27 28  2  0
 27 29  1  0
 29 30  1  0
 30 31  2  0
 23 32  1  0
 32 33  2  0
 15 34  2  0
 34 35  1  0
 35 36  2  0
  5 37  1  0
 37 38  2  0
 38  3  1  0
 36 10  1  0
 35 12  1  0
 21 16  1  0
 30 24  1  0
 32 20  1  0
  1 39  1  0
  1 40  1  0
  1 41  1  0
  2 42  1  0
  2 43  1  0
  4 44  1  0
 11 45  1  0
 13 46  1  0
 14 47  1  0
 17 48  1  0
 18 49  1  0
 19 50  1  0
 22 51  1  0
 22 52  1  0
 24 53  1  6
 25 54  1  0
 25 55  1  0
 26 56  1  0
 26 57  1  0
 29 58  1  0
 34 59  1  0
 37 60  1  0
M  END
>  <meeko>  (42) 
{"is_sidechain": [true], "free_energy": -14.88, "intermolecular_energy": 0.0, "internal_energy": -14.88, "cluster_size": 20, "cluster_id": 1, "rank_in_cluster": 1}

>  <_RMSD_MCS_to_ref>  (42) 
0.926691666329445

$$$$
ligand
     RDKit          3D

 62 67  0  0  0  0  0  0  0  0999 V2000
   24.8540    9.4020    7.6050 C   0  0  0  0  0  0  0  0  0  0  0  0
   25.5230   10.7550    7.4270 C   0  0  0  0  0  0  0  0  0  0  0  0
   26.9460   10.6290    7.0100 C   0  0  0  0  0  0  0  0  0  0  0  0
   28.0760   10.5210    7.7950 C   0  0  0  0  0  0  0  0  0  0  0  0
   29.0980   10.3940    6.8970 N   0  0  0  0  0  0  0  0  0  0  0  0
   30.7410   10.4750    7.2580 S   0  0  0  0  0  6  0  0  0  0  0  0
   30.9850    9.3470    8.1370 O   0  0  0  0  0  0  0  0  0  0  0  0
   31.4010   10.5930    5.9720 O   0  0  0  0  0  0  0  0  0  0  0  0
   30.9510   11.8570    8.0940 O   0  0  0  0  0  0  0  0  0  0  0  0
   30.1510   12.9490    7.9020 C   0  0  0  0  0  0  0  0  0  0  0  0
   30.3270   13.9480    6.9580 C   0  0  0  0  0  0  0  0  0  0  0  0
   29.4960   15.0090    6.8170 N   0  0  0  0  0  0  0  0  0  0  0  0
   28.4380   15.1040    7.6400 C   0  0  0  0  0  0  0  0  0  0  0  0
   27.5720   16.1800    7.5210 C   0  0  0  0  0  0  0  0  0  0  0  0
   26.4550   16.3210    8.3530 C   0  0  0  0  0  0  0  0  0  0  0  0
   26.1750   15.3690    9.3380 C   0  0  0  0  0  0  0  0  0  0  0  0
   25.0030   15.5030   10.2070 C   0  0  0  0  0  0  0  0  0  0  0  0
   23.7900   14.8580    9.8920 C   0  0  0  0  0  0  0  0  0  0  0  0
   22.6530   14.9720   10.7180 C   0  0  0  0  0  0  0  0  0  0  0  0
   22.6980   15.7380   11.8800 C   0  0  0  0  0  0  0  0  0  0  0  0
   23.8880   16.3710   12.1740 C   0  0  0  0  0  0  0  0  0  0  0  0
   25.0260   16.2670   11.3700 C   0  0  0  0  0  0  0  0  0  0  0  0
   26.1390   17.0640   11.9700 C   0  0  0  0  0  0  0  0  0  0  0  0
   25.5050   17.6890   13.1250 N   0  0  0  0  0  0  0  0  0  0  0  0
   26.2490   18.3610   14.1830 C   0  0  2  0  0  0  0  0  0  0  0  0
   25.8950   17.8340   15.5710 C   0  0  0  0  0  0  0  0  0  0  0  0
   26.7750   18.5150   16.6090 C   0  0  0  0  0  0  0  0  0  0  0  0
   26.6550   20.0190   16.5260 C   0  0  0  0  0  0  0  0  0  0  0  0
   26.7030   20.7370   17.5190 O   0  0  0  0  0  0  0  0  0  0  0  0
   26.5050   20.5550   15.2720 N   0  0  0  0  0  0  0  0  0  0  0  0
   26.0440   19.8850   14.1610 C   0  0  0  0  0  0  0  0  0  0  0  0
   25.5050   20.5020   13.2450 O   0  0  0  0  0  0  0  0  0  0  0  0
   24.2090   17.2350   13.3160 C   0  0  0  0  0  0  0  0  0  0  0  0
   23.4560   17.4850   14.2370 O   0  0  0  0  0  0  0  0  0  0  0  0
   27.0480   14.2810    9.4710 C   0  0  0  0  0  0  0  0  0  0  0  0
   28.1710   14.1420    8.6330 C   0  0  0  0  0  0  0  0  0  0  0  0
   29.0520   13.0570    8.7500 C   0  0  0  0  0  0  0  0  0  0  0  0
   28.6000   10.5070    5.6380 C   0  0  0  0  0  0  0  0  0  0  0  0
   27.2890   10.6280    5.6710 N   0  0  0  0  0  0  0  0  0  0  0  0
   24.7464    9.1845    8.6779 H   0  0  0  0  0  0  0  0  0  0  0  0
   23.8606    9.4192    7.1330 H   0  0  0  0  0  0  0  0  0  0  0  0
   25.4708    8.6230    7.1330 H   0  0  0  0  0  0  0  0  0  0  0  0
   24.9774   11.3213    6.6578 H   0  0  0  0  0  0  0  0  0  0  0  0
   25.5004   11.2727    8.3973 H   0  0  0  0  0  0  0  0  0  0  0  0
   28.1394   10.5342    8.8931 H   0  0  0  0  0  0  0  0  0  0  0  0
   31.1926   13.8754    6.2831 H   0  0  0  0  0  0  0  0  0  0  0  0
   27.7676   16.9427    6.7529 H   0  0  0  0  0  0  0  0  0  0  0  0
   25.7910   17.1894    8.2306 H   0  0  0  0  0  0  0  0  0  0  0  0
   23.7288   14.2496    8.9776 H   0  0  0  0  0  0  0  0  0  0  0  0
   21.7236   14.4520   10.4425 H   0  0  0  0  0  0  0  0  0  0  0  0
   21.8207   15.8344   12.5366 H   0  0  0  0  0  0  0  0  0  0  0  0
   26.9703   16.4132   12.2787 H   0  0  0  0  0  0  0  0  0  0  0  0
   26.5804   17.7894   11.2708 H   0  0  0  0  0  0  0  0  0  0  0  0
   27.3066   18.1380   13.9786 H   0  0  0  0  0  0  0  0  0  0  0  0
   24.8382   18.0498   15.7871 H   0  0  0  0  0  0  0  0  0  0  0  0
   26.0604   16.7470   15.6048 H   0  0  0  0  0  0  0  0  0  0  0  0
   26.4669   18.1854   17.6122 H   0  0  0  0  0  0  0  0  0  0  0  0
   27.8215   18.2380   16.4137 H   0  0  0  0  0  0  0  0  0  0  0  0
   26.7596   21.5457   15.1511 H   0  0  0  0  0  0  0  0  0  0  0  0
   26.8527   13.5225   10.2433 H   0  0  0  0  0  0  0  0  0  0  0  0
   28.8738   12.2875    9.5156 H   0  0  0  0  0  0  0  0  0  0  0  0
   29.2064   10.4986    4.7203 H   0  0  0  0  0  0  0  0  0  0  0  0
  1  2  1  0
  2  3  1  0
  3  4  2  0
  4  5  1  0
  5  6  1  0
  6  7  2  0
  6  8  2  0
  6  9  1  0
  9 10  1  0
 10 11  2  0
 11 12  1  0
 12 13  2  0
 13 14  1  0
 14 15  2  0
 15 16  1  0
 16 17  1  0
 17 18  2  0
 18 19  1  0
 19 20  2  0
 20 21  1  0
 21 22  2  0
 22 23  1  0
 23 24  1  0
 24 25  1  0
 25 26  1  0
 26 27  1  0
 27 28  1  0
 28 29  2  0
 28 30  1  0
 30 31  1  0
 31 32  2  0
 24 33  1  0
 33 34  2  0
 16 35  2  0
 35 36  1  0
 36 37  2  0
  5 38  1  0
 38 39  2  0
 39  3  1  0
 37 10  1  0
 36 13  1  0
 22 17  1  0
 31 25  1  0
 33 21  1  0
  1 40  1  0
  1 41  1  0
  1 42  1  0
  2 43  1  0
  2 44  1  0
  4 45  1  0
 11 46  1  0
 14 47  1  0
 15 48  1  0
 18 49  1  0
 19 50  1  0
 20 51  1  0
 23 52  1  0
 23 53  1  0
 25 54  1  6
 26 55  1  0
 26 56  1  0
 27 57  1  0
 27 58  1  0
 30 59  1  0
 35 60  1  0
 37 61  1  0
 38 62  1  0
M  END
>  <meeko>  (43) 
{"is_sidechain": [true], "free_energy": -14.86, "intermolecular_energy": 0.0, "internal_energy": -14.86, "cluster_size": 20, "cluster_id": 1, "rank_in_cluster": 1}

>  <_RMSD_MCS_to_ref>  (43) 
0.8140683154516086

$$$$
ligand
     RDKit          3D

 59 64  0  0  0  0  0  0  0  0999 V2000
   24.8540    9.4020    7.6050 C   0  0  0  0  0  0  0  0  0  0  0  0
   25.5230   10.7550    7.4270 C   0  0  0  0  0  0  0  0  0  0  0  0
   24.7300   11.6670    6.5570 C   0  0  0  0  0  0  0  0  0  0  0  0
   24.8350   11.8800    5.1970 C   0  0  0  0  0  0  0  0  0  0  0  0
   23.8630   12.7990    4.9250 N   0  0  0  0  0  0  0  0  0  0  0  0
   23.7260   13.6920    3.4990 S   0  0  0  0  0  6  0  0  0  0  0  0
   22.3170   14.0220    3.4080 O   0  0  0  0  0  0  0  0  0  0  0  0
   24.3770   12.8840    2.4850 O   0  0  0  0  0  0  0  0  0  0  0  0
   24.5620   15.0830    3.7240 O   0  0  0  0  0  0  0  0  0  0  0  0
   25.8560   15.0620    4.2110 C   0  0  0  0  0  0  0  0  0  0  0  0
   26.9170   14.7800    3.4280 C   0  0  0  0  0  0  0  0  0  0  0  0
   28.2520   14.7740    4.0070 C   0  0  0  0  0  0  0  0  0  0  0  0
   28.4560   15.0490    5.3080 C   0  0  0  0  0  0  0  0  0  0  0  0
   27.3480   15.3590    6.1460 C   0  0  0  0  0  0  0  0  0  0  0  0
   27.2840   15.6360    7.4300 N   0  0  0  0  0  0  0  0  0  0  0  0
   25.9500   15.8480    7.7000 C   0  0  0  0  0  0  0  0  0  0  0  0
   25.4550   16.1660    9.0330 C   0  0  0  0  0  0  0  0  0  0  0  0
   24.1480   15.7460    9.3960 C   0  0  0  0  0  0  0  0  0  0  0  0
   23.6050   16.0300   10.6550 C   0  0  0  0  0  0  0  0  0  0  0  0
   24.3990   16.7340   11.5350 C   0  0  0  0  0  0  0  0  0  0  0  0
   25.6730   17.1480   11.1960 C   0  0  0  0  0  0  0  0  0  0  0  0
   26.2290   16.8870    9.9560 C   0  0  0  0  0  0  0  0  0  0  0  0
   26.2220   17.8660   12.3430 C   0  0  0  0  0  0  0  0  0  0  0  0
   27.3170   18.3920   12.3570 O   0  0  0  0  0  0  0  0  0  0  0  0
   25.2730   17.8190   13.3280 N   0  0  0  0  0  0  0  0  0  0  0  0
   25.3450   18.5340   14.5940 C   0  0  1  0  0  0  0  0  0  0  0  0
   26.3360   17.9430   15.5930 C   0  0  0  0  0  0  0  0  0  0  0  0
   26.2900   18.7520   16.8810 C   0  0  0  0  0  0  0  0  0  0  0  0
   26.5710   20.2140   16.6200 C   0  0  0  0  0  0  0  0  0  0  0  0
   27.0640   20.9480   17.4710 O   0  0  0  0  0  0  0  0  0  0  0  0
   26.1900   20.7040   15.3960 N   0  0  0  0  0  0  0  0  0  0  0  0
   25.6800   20.0040   14.3250 C   0  0  0  0  0  0  0  0  0  0  0  0
   25.4620   20.5720   13.2560 O   0  0  0  0  0  0  0  0  0  0  0  0
   24.1350   17.1900   12.8980 C   0  0  0  0  0  0  0  0  0  0  0  0
   23.0910   17.0090   13.4940 O   0  0  0  0  0  0  0  0  0  0  0  0
   25.1990   15.7140    6.5510 C   0  0  0  0  0  0  0  0  0  0  0  0
   26.0880   15.3720    5.5600 N   0  0  0  0  0  0  0  0  0  0  0  0
   23.2460   13.1510    6.0830 C   0  0  0  0  0  0  0  0  0  0  0  0
   23.7440   12.4720    7.0940 N   0  0  0  0  0  0  0  0  0  0  0  0
   24.7464    9.1845    8.6779 H   0  0  0  0  0  0  0  0  0  0  0  0
   23.8606    9.4192    7.1330 H   0  0  0  0  0  0  0  0  0  0  0  0
   25.4708    8.6230    7.1330 H   0  0  0  0  0  0  0  0  0  0  0  0
   25.6422   11.2235    8.4151 H   0  0  0  0  0  0  0  0  0  0  0  0
   26.4960   10.5883    6.9417 H   0  0  0  0  0  0  0  0  0  0  0  0
   25.5410   11.4151    4.4931 H   0  0  0  0  0  0  0  0  0  0  0  0
   26.7745   14.5563    2.3604 H   0  0  0  0  0  0  0  0  0  0  0  0
   29.1145   14.5391    3.3659 H   0  0  0  0  0  0  0  0  0  0  0  0
   29.4748   15.0343    5.7224 H   0  0  0  0  0  0  0  0  0  0  0  0
   23.5458   15.1822    8.6684 H   0  0  0  0  0  0  0  0  0  0  0  0
   22.5903   15.7059   10.9296 H   0  0  0  0  0  0  0  0  0  0  0  0
   27.2421   17.2324    9.7024 H   0  0  0  0  0  0  0  0  0  0  0  0
   24.3563   18.4356   15.0660 H   0  0  0  0  0  0  0  0  0  0  0  0
   26.0658   16.8980   15.8050 H   0  0  0  0  0  0  0  0  0  0  0  0
   27.3512   17.9772   15.1710 H   0  0  0  0  0  0  0  0  0  0  0  0
   25.2910   18.6536   17.3307 H   0  0  0  0  0  0  0  0  0  0  0  0
   27.0625   18.3656   17.5622 H   0  0  0  0  0  0  0  0  0  0  0  0
   26.2987   21.7194   15.2619 H   0  0  0  0  0  0  0  0  0  0  0  0
   24.1125   15.8523    6.4487 H   0  0  0  0  0  0  0  0  0  0  0  0
   22.4431   13.8985    6.1640 H   0  0  0  0  0  0  0  0  0  0  0  0
  1  2  1  0
  2  3  1  0
  3  4  2  0
  4  5  1  0
  5  6  1  0
  6  7  2  0
  6  8  2  0
  6  9  1  0
  9 10  1  0
 10 11  2  0
 11 12  1  0
 12 13  2  0
 13 14  1  0
 14 15  2  0
 15 16  1  0
 16 17  1  0
 17 18  2  0
 18 19  1  0
 19 20  2  0
 20 21  1  0
 21 22  2  0
 21 23  1  0
 23 24  2  0
 23 25  1  0
 25 26  1  0
 26 27  1  0
 27 28  1  0
 28 29  1  0
 29 30  2  0
 29 31  1  0
 31 32  1  0
 32 33  2  0
 25 34  1  0
 34 35  2  0
 16 36  2  0
 36 37  1  0
  5 38  1  0
 38 39  2  0
 39  3  1  0
 37 10  1  0
 37 14  1  0
 22 17  1  0
 32 26  1  0
 34 20  1  0
  1 40  1  0
  1 41  1  0
  1 42  1  0
  2 43  1  0
  2 44  1  0
  4 45  1  0
 11 46  1  0
 12 47  1  0
 13 48  1  0
 18 49  1  0
 19 50  1  0
 22 51  1  0
 26 52  1  1
 27 53  1  0
 27 54  1  0
 28 55  1  0
 28 56  1  0
 31 57  1  0
 36 58  1  0
 38 59  1  0
M  END
>  <meeko>  (44) 
{"is_sidechain": [true], "free_energy": -14.86, "intermolecular_energy": 0.0, "internal_energy": -14.86, "cluster_size": 13, "cluster_id": 1, "rank_in_cluster": 1}

>  <_RMSD_MCS_to_ref>  (44) 
0.5781137911826306

$$$$
ligand
     RDKit          3D

 61 66  0  0  0  0  0  0  0  0999 V2000
   24.8710    9.6170    7.7820 C   0  0  0  0  0  0  0  0  0  0  0  0
   25.4240   10.9640    7.3490 C   0  0  0  0  0  0  0  0  0  0  0  0
   26.8850   11.0840    7.6100 C   0  0  0  0  0  0  0  0  0  0  0  0
   27.5560   12.0270    8.3650 C   0  0  0  0  0  0  0  0  0  0  0  0
   28.8610   11.6300    8.3090 N   0  0  0  0  0  0  0  0  0  0  0  0
   30.1890   12.5050    8.8550 S   0  0  0  0  0  6  0  0  0  0  0  0
   31.3210   11.6750    8.4830 O   0  0  0  0  0  0  0  0  0  0  0  0
   29.9090   12.7800   10.2540 O   0  0  0  0  0  0  0  0  0  0  0  0
   30.2890   13.8920    7.9940 O   0  0  0  0  0  0  0  0  0  0  0  0
   29.5990   13.9890    6.8090 C   0  0  0  0  0  0  0  0  0  0  0  0
   30.2200   13.4820    5.6700 C   0  0  0  0  0  0  0  0  0  0  0  0
   29.5170   13.5390    4.4880 C   0  0  0  0  0  0  0  0  0  0  0  0
   28.2670   14.0360    4.3940 N   0  0  0  0  0  0  0  0  0  0  0  0
   27.6840   14.4990    5.5190 C   0  0  0  0  0  0  0  0  0  0  0  0
   26.3880   14.9800    5.4640 C   0  0  0  0  0  0  0  0  0  0  0  0
   25.7430   15.4350    6.6130 C   0  0  0  0  0  0  0  0  0  0  0  0
   26.4330   15.4090    7.8160 C   0  0  0  0  0  0  0  0  0  0  0  0
   25.8150   15.8450    9.0730 C   0  0  0  0  0  0  0  0  0  0  0  0
   24.4610   15.5300    9.3590 C   0  0  0  0  0  0  0  0  0  0  0  0
   23.8610   15.9130   10.5610 C   0  0  0  0  0  0  0  0  0  0  0  0
   24.6390   16.6100   11.4630 C   0  0  0  0  0  0  0  0  0  0  0  0
   25.9670   16.9430   11.2100 C   0  0  0  0  0  0  0  0  0  0  0  0
   26.5650   16.5720   10.0180 C   0  0  0  0  0  0  0  0  0  0  0  0
   26.5360   17.6940   12.3670 C   0  0  0  0  0  0  0  0  0  0  0  0
   25.4390   17.6690   13.3280 N   0  0  0  0  0  0  0  0  0  0  0  0
   25.4330   18.4510   14.5580 C   0  0  1  0  0  0  0  0  0  0  0  0
   26.3110   17.8350   15.6430 C   0  0  0  0  0  0  0  0  0  0  0  0
   26.1820   18.6510   16.9210 C   0  0  0  0  0  0  0  0  0  0  0  0
   26.5210   20.1030   16.6770 C   0  0  0  0  0  0  0  0  0  0  0  0
   27.0710   20.7990   17.5260 O   0  0  0  0  0  0  0  0  0  0  0  0
   26.1590   20.6240   15.4610 N   0  0  0  0  0  0  0  0  0  0  0  0
   25.8700   19.9060   14.3220 C   0  0  0  0  0  0  0  0  0  0  0  0
   25.9680   20.4340   13.2170 O   0  0  0  0  0  0  0  0  0  0  0  0
   24.2890   17.1100   12.7960 C   0  0  0  0  0  0  0  0  0  0  0  0
   23.1890   17.0230   13.3080 O   0  0  0  0  0  0  0  0  0  0  0  0
   27.7110   14.9660    7.9100 N   0  0  0  0  0  0  0  0  0  0  0  0
   28.3090   14.5100    6.7810 C   0  0  0  0  0  0  0  0  0  0  0  0
   28.9670   10.5730    7.4620 C   0  0  0  0  0  0  0  0  0  0  0  0
   27.7760   10.1860    7.0510 N   0  0  0  0  0  0  0  0  0  0  0  0
   24.8498    9.5653    8.8806 H   0  0  0  0  0  0  0  0  0  0  0  0
   23.8505    9.4962    7.3895 H   0  0  0  0  0  0  0  0  0  0  0  0
   25.5122    8.8140    7.3895 H   0  0  0  0  0  0  0  0  0  0  0  0
   25.2455   11.0899    6.2709 H   0  0  0  0  0  0  0  0  0  0  0  0
   24.9121   11.7423    7.9339 H   0  0  0  0  0  0  0  0  0  0  0  0
   27.1355   12.8972    8.8902 H   0  0  0  0  0  0  0  0  0  0  0  0
   31.2320   13.0531    5.7134 H   0  0  0  0  0  0  0  0  0  0  0  0
   29.9989   13.1603    3.5746 H   0  0  0  0  0  0  0  0  0  0  0  0
   25.8590   15.0037    4.4999 H   0  0  0  0  0  0  0  0  0  0  0  0
   24.7088   15.8068    6.5666 H   0  0  0  0  0  0  0  0  0  0  0  0
   23.8707   14.9717    8.6175 H   0  0  0  0  0  0  0  0  0  0  0  0
   22.8110   15.6689   10.7797 H   0  0  0  0  0  0  0  0  0  0  0  0
   27.6114   16.8412    9.8116 H   0  0  0  0  0  0  0  0  0  0  0  0
   27.4279   17.1904   12.7682 H   0  0  0  0  0  0  0  0  0  0  0  0
   26.8710   18.7096   12.1093 H   0  0  0  0  0  0  0  0  0  0  0  0
   24.3888   18.4436   14.9039 H   0  0  0  0  0  0  0  0  0  0  0  0
   25.9878   16.8010   15.8336 H   0  0  0  0  0  0  0  0  0  0  0  0
   27.3598   17.8351   15.3112 H   0  0  0  0  0  0  0  0  0  0  0  0
   25.1478   18.5807   17.2891 H   0  0  0  0  0  0  0  0  0  0  0  0
   26.8857   18.2485   17.6645 H   0  0  0  0  0  0  0  0  0  0  0  0
   26.0974   21.6499   15.3933 H   0  0  0  0  0  0  0  0  0  0  0  0
   29.9158   10.1049    7.1609 H   0  0  0  0  0  0  0  0  0  0  0  0
  1  2  1  0
  2  3  1  0
  3  4  2  0
  4  5  1  0
  5  6  1  0
  6  7  2  0
  6  8  2  0
  6  9  1  0
  9 10  1  0
 10 11  2  0
 11 12  1  0
 12 13  2  0
 13 14  1  0
 14 15  2  0
 15 16  1  0
 16 17  2  0
 17 18  1  0
 18 19  2  0
 19 20  1  0
 20 21  2  0
 21 22  1  0
 22 23  2  0
 22 24  1  0
 24 25  1  0
 25 26  1  0
 26 27  1  0
 27 28  1  0
 28 29  1  0
 29 30  2  0
 29 31  1  0
 31 32  1  0
 32 33  2  0
 25 34  1  0
 34 35  2  0
 17 36  1  0
 36 37  2  0
  5 38  1  0
 38 39  2  0
 39  3  1  0
 37 10  1  0
 37 14  1  0
 23 18  1  0
 32 26  1  0
 34 21  1  0
  1 40  1  0
  1 41  1  0
  1 42  1  0
  2 43  1  0
  2 44  1  0
  4 45  1  0
 11 46  1  0
 12 47  1  0
 15 48  1  0
 16 49  1  0
 19 50  1  0
 20 51  1  0
 23 52  1  0
 24 53  1  0
 24 54  1  0
 26 55  1  1
 27 56  1  0
 27 57  1  0
 28 58  1  0
 28 59  1  0
 31 60  1  0
 38 61  1  0
M  END
>  <meeko>  (45) 
{"is_sidechain": [true], "free_energy": -14.79, "intermolecular_energy": 0.0, "internal_energy": -14.79, "cluster_size": 16, "cluster_id": 1, "rank_in_cluster": 1}

>  <_RMSD_MCS_to_ref>  (45) 
0.7624846158931239

$$$$
ligand
     RDKit          3D

 62 67  0  0  0  0  0  0  0  0999 V2000
   24.8540    9.4020    7.6050 C   0  0  0  0  0  0  0  0  0  0  0  0
   25.5230   10.7550    7.4270 C   0  0  0  0  0  0  0  0  0  0  0  0
   26.9500   10.6290    7.0260 C   0  0  0  0  0  0  0  0  0  0  0  0
   28.0830   10.7010    7.8130 C   0  0  0  0  0  0  0  0  0  0  0  0
   29.1110   10.5060    6.9340 N   0  0  0  0  0  0  0  0  0  0  0  0
   30.7500   10.4950    7.3290 S   0  0  0  0  0  6  0  0  0  0  0  0
   31.4750   10.6090    6.0760 O   0  0  0  0  0  0  0  0  0  0  0  0
   30.8910    9.3000    8.1460 O   0  0  0  0  0  0  0  0  0  0  0  0
   31.0880   11.7670    8.2850 O   0  0  0  0  0  0  0  0  0  0  0  0
   30.3580   12.9220    8.1750 C   0  0  0  0  0  0  0  0  0  0  0  0
   29.2220   13.0270    8.9610 C   0  0  0  0  0  0  0  0  0  0  0  0
   28.4280   14.1760    8.8510 C   0  0  0  0  0  0  0  0  0  0  0  0
   27.2680   14.3570    9.6240 C   0  0  0  0  0  0  0  0  0  0  0  0
   26.4810   15.5150    9.5040 C   0  0  0  0  0  0  0  0  0  0  0  0
   25.2810   15.6920   10.3240 C   0  0  0  0  0  0  0  0  0  0  0  0
   24.0750   15.0400    9.9940 C   0  0  0  0  0  0  0  0  0  0  0  0
   22.9140   15.1880   10.7810 C   0  0  0  0  0  0  0  0  0  0  0  0
   22.9260   15.9940   11.9160 C   0  0  0  0  0  0  0  0  0  0  0  0
   24.1110   16.6340   12.2230 C   0  0  0  0  0  0  0  0  0  0  0  0
   25.2700   16.4990   11.4570 C   0  0  0  0  0  0  0  0  0  0  0  0
   26.3670   17.3170   12.0590 C   0  0  0  0  0  0  0  0  0  0  0  0
   25.7040   17.9770   13.1770 N   0  0  0  0  0  0  0  0  0  0  0  0
   26.4210   18.6850   14.2300 C   0  0  2  0  0  0  0  0  0  0  0  0
   26.1850   18.0750   15.6080 C   0  0  0  0  0  0  0  0  0  0  0  0
   27.0360   18.8050   16.6360 C   0  0  0  0  0  0  0  0  0  0  0  0
   26.7610   20.2910   16.6180 C   0  0  0  0  0  0  0  0  0  0  0  0
   26.7760   20.9750   17.6360 O   0  0  0  0  0  0  0  0  0  0  0  0
   26.5080   20.8540   15.3930 N   0  0  0  0  0  0  0  0  0  0  0  0
   26.0590   20.1800   14.2790 C   0  0  0  0  0  0  0  0  0  0  0  0
   25.4090   20.7680   13.4180 O   0  0  0  0  0  0  0  0  0  0  0  0
   24.4020   17.5330   13.3450 C   0  0  0  0  0  0  0  0  0  0  0  0
   23.6250   17.8140   14.2370 O   0  0  0  0  0  0  0  0  0  0  0  0
   26.8710   16.4970    8.5840 C   0  0  0  0  0  0  0  0  0  0  0  0
   28.0220   16.3340    7.8070 C   0  0  0  0  0  0  0  0  0  0  0  0
   28.8060   15.1770    7.9350 C   0  0  0  0  0  0  0  0  0  0  0  0
   29.9630   14.9560    7.1860 C   0  0  0  0  0  0  0  0  0  0  0  0
   30.7400   13.8520    7.2850 N   0  0  0  0  0  0  0  0  0  0  0  0
   28.6080   10.3350    5.6850 C   0  0  0  0  0  0  0  0  0  0  0  0
   27.2910   10.4020    5.7060 N   0  0  0  0  0  0  0  0  0  0  0  0
   24.7464    9.1845    8.6779 H   0  0  0  0  0  0  0  0  0  0  0  0
   23.8606    9.4192    7.1330 H   0  0  0  0  0  0  0  0  0  0  0  0
   25.4708    8.6230    7.1330 H   0  0  0  0  0  0  0  0  0  0  0  0
   24.9849   11.3164    6.6491 H   0  0  0  0  0  0  0  0  0  0  0  0
   25.4894   11.2777    8.3943 H   0  0  0  0  0  0  0  0  0  0  0  0
   28.1437   10.8752    8.8974 H   0  0  0  0  0  0  0  0  0  0  0  0
   28.9482   12.2223    9.6592 H   0  0  0  0  0  0  0  0  0  0  0  0
   26.9699   13.5753   10.3382 H   0  0  0  0  0  0  0  0  0  0  0  0
   24.0388   14.3998    9.1002 H   0  0  0  0  0  0  0  0  0  0  0  0
   21.9911   14.6620   10.4955 H   0  0  0  0  0  0  0  0  0  0  0  0
   22.0297   16.1161   12.5419 H   0  0  0  0  0  0  0  0  0  0  0  0
   27.1911   16.6779   12.4088 H   0  0  0  0  0  0  0  0  0  0  0  0
   26.8248   18.0207   11.3482 H   0  0  0  0  0  0  0  0  0  0  0  0
   27.4856   18.5815   13.9732 H   0  0  0  0  0  0  0  0  0  0  0  0
   25.1224   18.1724   15.8754 H   0  0  0  0  0  0  0  0  0  0  0  0
   26.4618   17.0105   15.5910 H   0  0  0  0  0  0  0  0  0  0  0  0
   26.8071   18.4100   17.6368 H   0  0  0  0  0  0  0  0  0  0  0  0
   28.0956   18.6441   16.3882 H   0  0  0  0  0  0  0  0  0  0  0  0
   26.6674   21.8672   15.2982 H   0  0  0  0  0  0  0  0  0  0  0  0
   26.2642   17.4076    8.4715 H   0  0  0  0  0  0  0  0  0  0  0  0
   28.3146   17.1167    7.0916 H   0  0  0  0  0  0  0  0  0  0  0  0
   30.2638   15.7317    6.4664 H   0  0  0  0  0  0  0  0  0  0  0  0
   29.2134   10.1646    4.7825 H   0  0  0  0  0  0  0  0  0  0  0  0
  1  2  1  0
  2  3  1  0
  3  4  2  0
  4  5  1  0
  5  6  1  0
  6  7  2  0
  6  8  2  0
  6  9  1  0
  9 10  1  0
 10 11  2  0
 11 12  1  0
 12 13  2  0
 13 14  1  0
 14 15  1  0
 15 16  2  0
 16 17  1  0
 17 18  2  0
 18 19  1  0
 19 20  2  0
 20 21  1  0
 21 22  1  0
 22 23  1  0
 23 24  1  0
 24 25  1  0
 25 26  1  0
 26 27  2  0
 26 28  1  0
 28 29  1  0
 29 30  2  0
 22 31  1  0
 31 32  2  0
 14 33  2  0
 33 34  1  0
 34 35  2  0
 35 36  1  0
 36 37  2  0
  5 38  1  0
 38 39  2  0
 39  3  1  0
 37 10  1  0
 35 12  1  0
 20 15  1  0
 29 23  1  0
 31 19  1  0
  1 40  1  0
  1 41  1  0
  1 42  1  0
  2 43  1  0
  2 44  1  0
  4 45  1  0
 11 46  1  0
 13 47  1  0
 16 48  1  0
 17 49  1  0
 18 50  1  0
 21 51  1  0
 21 52  1  0
 23 53  1  6
 24 54  1  0
 24 55  1  0
 25 56  1  0
 25 57  1  0
 28 58  1  0
 33 59  1  0
 34 60  1  0
 36 61  1  0
 38 62  1  0
M  END
>  <meeko>  (46) 
{"is_sidechain": [true], "free_energy": -14.73, "intermolecular_energy": 0.0, "internal_energy": -14.73, "cluster_size": 19, "cluster_id": 1, "rank_in_cluster": 1}

>  <_RMSD_MCS_to_ref>  (46) 
0.9122003313112984

$$$$
ligand
     RDKit          3D

 62 67  0  0  0  0  0  0  0  0999 V2000
   24.8540    9.4020    7.6050 C   0  0  0  0  0  0  0  0  0  0  0  0
   25.5230   10.7550    7.4270 C   0  0  0  0  0  0  0  0  0  0  0  0
   25.0460   11.4610    6.2070 C   0  0  0  0  0  0  0  0  0  0  0  0
   25.6830   11.6220    4.9930 C   0  0  0  0  0  0  0  0  0  0  0  0
   24.8070   12.3620    4.2490 N   0  0  0  0  0  0  0  0  0  0  0  0
   25.1680   13.1170    2.7810 S   0  0  0  0  0  6  0  0  0  0  0  0
   25.9080   12.1140    2.0390 O   0  0  0  0  0  0  0  0  0  0  0  0
   23.8990   13.6250    2.2920 O   0  0  0  0  0  0  0  0  0  0  0  0
   26.1810   14.3700    3.0800 O   0  0  0  0  0  0  0  0  0  0  0  0
   27.0590   14.2830    4.1330 C   0  0  0  0  0  0  0  0  0  0  0  0
   28.3580   13.8240    3.9120 C   0  0  0  0  0  0  0  0  0  0  0  0
   29.2590   13.7810    4.9720 C   0  0  0  0  0  0  0  0  0  0  0  0
   28.8590   14.1850    6.2480 C   0  0  0  0  0  0  0  0  0  0  0  0
   27.5420   14.6140    6.4900 C   0  0  0  0  0  0  0  0  0  0  0  0
   27.1250   15.0140    7.7680 C   0  0  0  0  0  0  0  0  0  0  0  0
   25.8090   15.4270    7.9770 C   0  0  0  0  0  0  0  0  0  0  0  0
   25.3000   15.8700    9.2940 C   0  0  0  0  0  0  0  0  0  0  0  0
   24.0640   15.3680    9.7860 C   0  0  0  0  0  0  0  0  0  0  0  0
   23.5400   15.7590   11.0230 C   0  0  0  0  0  0  0  0  0  0  0  0
   24.2750   16.6600   11.7610 C   0  0  0  0  0  0  0  0  0  0  0  0
   25.4940   17.1680   11.3250 C   0  0  0  0  0  0  0  0  0  0  0  0
   26.0180   16.7810   10.1010 C   0  0  0  0  0  0  0  0  0  0  0  0
   26.0600   18.0820   12.3590 C   0  0  0  0  0  0  0  0  0  0  0  0
   24.9980   18.1420   13.3540 N   0  0  0  0  0  0  0  0  0  0  0  0
   25.2130   18.7650   14.6560 C   0  0  1  0  0  0  0  0  0  0  0  0
   26.2570   18.0520   15.5150 C   0  0  0  0  0  0  0  0  0  0  0  0
   26.3550   18.7440   16.8650 C   0  0  0  0  0  0  0  0  0  0  0  0
   26.6840   20.2110   16.7070 C   0  0  0  0  0  0  0  0  0  0  0  0
   27.2030   20.8650   17.6060 O   0  0  0  0  0  0  0  0  0  0  0  0
   26.2950   20.8060   15.5340 N   0  0  0  0  0  0  0  0  0  0  0  0
   25.5590   20.2550   14.5090 C   0  0  0  0  0  0  0  0  0  0  0  0
   25.1290   20.9650   13.6020 O   0  0  0  0  0  0  0  0  0  0  0  0
   23.9830   17.2360   13.0780 C   0  0  0  0  0  0  0  0  0  0  0  0
   23.0300   16.9350   13.7710 O   0  0  0  0  0  0  0  0  0  0  0  0
   24.9100   15.4540    6.9620 N   0  0  0  0  0  0  0  0  0  0  0  0
   25.3250   15.0630    5.7350 C   0  0  0  0  0  0  0  0  0  0  0  0
   26.6240   14.6490    5.4260 C   0  0  0  0  0  0  0  0  0  0  0  0
   23.7160   12.6490    5.0040 C   0  0  0  0  0  0  0  0  0  0  0  0
   23.8210   12.1010    6.1960 N   0  0  0  0  0  0  0  0  0  0  0  0
   24.7464    9.1845    8.6779 H   0  0  0  0  0  0  0  0  0  0  0  0
   23.8606    9.4192    7.1330 H   0  0  0  0  0  0  0  0  0  0  0  0
   25.4708    8.6230    7.1330 H   0  0  0  0  0  0  0  0  0  0  0  0
   25.3020   11.3780    8.3062 H   0  0  0  0  0  0  0  0  0  0  0  0
   26.6045   10.5857    7.3184 H   0  0  0  0  0  0  0  0  0  0  0  0
   26.6705   11.2415    4.6927 H   0  0  0  0  0  0  0  0  0  0  0  0
   28.6676   13.4987    2.9079 H   0  0  0  0  0  0  0  0  0  0  0  0
   30.2874   13.4284    4.8047 H   0  0  0  0  0  0  0  0  0  0  0  0
   29.5843   14.1673    7.0748 H   0  0  0  0  0  0  0  0  0  0  0  0
   27.8366   15.0020    8.6067 H   0  0  0  0  0  0  0  0  0  0  0  0
   23.5010   14.6482    9.1737 H   0  0  0  0  0  0  0  0  0  0  0  0
   22.5816   15.3635   11.3905 H   0  0  0  0  0  0  0  0  0  0  0  0
   26.9850   17.1800    9.7609 H   0  0  0  0  0  0  0  0  0  0  0  0
   26.9837   17.6687   12.7901 H   0  0  0  0  0  0  0  0  0  0  0  0
   26.3400   19.0686   11.9613 H   0  0  0  0  0  0  0  0  0  0  0  0
   24.2568   18.6692   15.1912 H   0  0  0  0  0  0  0  0  0  0  0  0
   25.9588   17.0032   15.6606 H   0  0  0  0  0  0  0  0  0  0  0  0
   27.2344   18.0869   15.0114 H   0  0  0  0  0  0  0  0  0  0  0  0
   25.3923   18.6469   17.3883 H   0  0  0  0  0  0  0  0  0  0  0  0
   27.1611   18.2673   17.4421 H   0  0  0  0  0  0  0  0  0  0  0  0
   26.5894   21.7844   15.4040 H   0  0  0  0  0  0  0  0  0  0  0  0
   24.5857   15.0715    4.9205 H   0  0  0  0  0  0  0  0  0  0  0  0
   22.8626   13.2554    4.6664 H   0  0  0  0  0  0  0  0  0  0  0  0
  1  2  1  0
  2  3  1  0
  3  4  2  0
  4  5  1  0
  5  6  1  0
  6  7  2  0
  6  8  2  0
  6  9  1  0
  9 10  1  0
 10 11  2  0
 11 12  1  0
 12 13  2  0
 13 14  1  0
 14 15  2  0
 15 16  1  0
 16 17  1  0
 17 18  2  0
 18 19  1  0
 19 20  2  0
 20 21  1  0
 21 22  2  0
 21 23  1  0
 23 24  1  0
 24 25  1  0
 25 26  1  0
 26 27  1  0
 27 28  1  0
 28 29  2  0
 28 30  1  0
 30 31  1  0
 31 32  2  0
 24 33  1  0
 33 34  2  0
 16 35  2  0
 35 36  1  0
 36 37  2  0
  5 38  1  0
 38 39  2  0
 39  3  1  0
 37 10  1  0
 37 14  1  0
 22 17  1  0
 31 25  1  0
 33 20  1  0
  1 40  1  0
  1 41  1  0
  1 42  1  0
  2 43  1  0
  2 44  1  0
  4 45  1  0
 11 46  1  0
 12 47  1  0
 13 48  1  0
 15 49  1  0
 18 50  1  0
 19 51  1  0
 22 52  1  0
 23 53  1  0
 23 54  1  0
 25 55  1  1
 26 56  1  0
 26 57  1  0
 27 58  1  0
 27 59  1  0
 30 60  1  0
 36 61  1  0
 38 62  1  0
M  END
>  <meeko>  (47) 
{"is_sidechain": [true], "free_energy": -14.73, "intermolecular_energy": 0.0, "internal_energy": -14.73, "cluster_size": 17, "cluster_id": 1, "rank_in_cluster": 1}

>  <_RMSD_MCS_to_ref>  (47) 
0.5322327185232663

$$$$
ligand
     RDKit          3D

 62 67  0  0  0  0  0  0  0  0999 V2000
   24.8710    9.6160    7.7820 C   0  0  0  0  0  0  0  0  0  0  0  0
   25.4240   10.9650    7.3490 C   0  0  0  0  0  0  0  0  0  0  0  0
   26.8730   11.1030    7.6580 C   0  0  0  0  0  0  0  0  0  0  0  0
   27.4800   11.7980    8.6870 C   0  0  0  0  0  0  0  0  0  0  0  0
   28.8130   11.5550    8.5140 N   0  0  0  0  0  0  0  0  0  0  0  0
   30.0700   12.3310    9.3270 S   0  0  0  0  0  6  0  0  0  0  0  0
   31.2410   11.5190    9.0510 O   0  0  0  0  0  0  0  0  0  0  0  0
   29.5750   12.5150   10.6770 O   0  0  0  0  0  0  0  0  0  0  0  0
   30.2320   13.7850    8.6080 O   0  0  0  0  0  0  0  0  0  0  0  0
   29.3190   14.2670    7.7050 C   0  0  0  0  0  0  0  0  0  0  0  0
   29.6800   14.1290    6.3670 C   0  0  0  0  0  0  0  0  0  0  0  0
   28.8300   14.5820    5.3600 C   0  0  0  0  0  0  0  0  0  0  0  0
   27.6020   15.1870    5.6790 C   0  0  0  0  0  0  0  0  0  0  0  0
   26.7350   15.6470    4.6880 C   0  0  0  0  0  0  0  0  0  0  0  0
   25.5430   16.2340    4.9240 N   0  0  0  0  0  0  0  0  0  0  0  0
   25.1920   16.3770    6.2200 C   0  0  0  0  0  0  0  0  0  0  0  0
   25.9650   15.9620    7.3090 C   0  0  0  0  0  0  0  0  0  0  0  0
   25.4710   16.1960    8.6740 C   0  0  0  0  0  0  0  0  0  0  0  0
   24.2280   15.6530    9.0850 C   0  0  0  0  0  0  0  0  0  0  0  0
   23.7400   15.8550   10.3800 C   0  0  0  0  0  0  0  0  0  0  0  0
   24.5200   16.5990   11.2420 C   0  0  0  0  0  0  0  0  0  0  0  0
   25.7440   17.1480   10.8670 C   0  0  0  0  0  0  0  0  0  0  0  0
   26.2290   16.9610    9.5830 C   0  0  0  0  0  0  0  0  0  0  0  0
   26.3370   17.9050   12.0080 C   0  0  0  0  0  0  0  0  0  0  0  0
   25.3830   17.6570   13.0820 N   0  0  0  0  0  0  0  0  0  0  0  0
   25.3900   18.3830   14.3460 C   0  0  1  0  0  0  0  0  0  0  0  0
   26.3190   17.7510   15.3770 C   0  0  0  0  0  0  0  0  0  0  0  0
   26.2020   18.5060   16.6930 C   0  0  0  0  0  0  0  0  0  0  0  0
   26.4860   19.9780   16.5030 C   0  0  0  0  0  0  0  0  0  0  0  0
   27.0620   20.6500   17.3530 O   0  0  0  0  0  0  0  0  0  0  0  0
   26.0480   20.5410   15.3320 N   0  0  0  0  0  0  0  0  0  0  0  0
   25.7740   19.8610   14.1670 C   0  0  0  0  0  0  0  0  0  0  0  0
   25.8540   20.4340   13.0820 O   0  0  0  0  0  0  0  0  0  0  0  0
   24.2660   16.9630   12.6390 C   0  0  0  0  0  0  0  0  0  0  0  0
   23.2580   16.6910   13.2620 O   0  0  0  0  0  0  0  0  0  0  0  0
   27.2120   15.3390    7.0290 C   0  0  0  0  0  0  0  0  0  0  0  0
   28.0930   14.8520    8.0290 C   0  0  0  0  0  0  0  0  0  0  0  0
   28.9880   10.8230    7.3840 C   0  0  0  0  0  0  0  0  0  0  0  0
   27.8250   10.5090    6.8530 N   0  0  0  0  0  0  0  0  0  0  0  0
   24.8497    9.5640    8.8806 H   0  0  0  0  0  0  0  0  0  0  0  0
   23.8507    9.4948    7.3893 H   0  0  0  0  0  0  0  0  0  0  0  0
   25.5127    8.8135    7.3893 H   0  0  0  0  0  0  0  0  0  0  0  0
   25.2810   11.0749    6.2639 H   0  0  0  0  0  0  0  0  0  0  0  0
   24.8840   11.7458    7.9046 H   0  0  0  0  0  0  0  0  0  0  0  0
   26.9996   12.4073    9.4667 H   0  0  0  0  0  0  0  0  0  0  0  0
   30.6399   13.6606    6.1041 H   0  0  0  0  0  0  0  0  0  0  0  0
   29.1226   14.4651    4.3061 H   0  0  0  0  0  0  0  0  0  0  0  0
   27.0448   15.5225    3.6399 H   0  0  0  0  0  0  0  0  0  0  0  0
   24.2254   16.8559    6.4354 H   0  0  0  0  0  0  0  0  0  0  0  0
   23.6356   15.0612    8.3716 H   0  0  0  0  0  0  0  0  0  0  0  0
   22.7734   15.4377   10.6987 H   0  0  0  0  0  0  0  0  0  0  0  0
   27.1894   17.4021    9.2781 H   0  0  0  0  0  0  0  0  0  0  0  0
   27.3344   17.5190   12.2654 H   0  0  0  0  0  0  0  0  0  0  0  0
   26.4878   18.9734   11.7939 H   0  0  0  0  0  0  0  0  0  0  0  0
   24.3565   18.3240   14.7180 H   0  0  0  0  0  0  0  0  0  0  0  0
   26.0353   16.6994   15.5308 H   0  0  0  0  0  0  0  0  0  0  0  0
   27.3568   17.8009   15.0158 H   0  0  0  0  0  0  0  0  0  0  0  0
   25.1822   18.3849   17.0872 H   0  0  0  0  0  0  0  0  0  0  0  0
   26.9403   18.0959   17.3978 H   0  0  0  0  0  0  0  0  0  0  0  0
   25.9121   21.5620   15.3233 H   0  0  0  0  0  0  0  0  0  0  0  0
   27.8029   14.9374    9.0866 H   0  0  0  0  0  0  0  0  0  0  0  0
   29.9650   10.5329    6.9700 H   0  0  0  0  0  0  0  0  0  0  0  0
  1  2  1  0
  2  3  1  0
  3  4  2  0
  4  5  1  0
  5  6  1  0
  6  7  2  0
  6  8  2  0
  6  9  1  0
  9 10  1  0
 10 11  2  0
 11 12  1  0
 12 13  2  0
 13 14  1  0
 14 15  2  0
 15 16  1  0
 16 17  2  0
 17 18  1  0
 18 19  2  0
 19 20  1  0
 20 21  2  0
 21 22  1  0
 22 23  2  0
 22 24  1  0
 24 25  1  0
 25 26  1  0
 26 27  1  0
 27 28  1  0
 28 29  1  0
 29 30  2  0
 29 31  1  0
 31 32  1  0
 32 33  2  0
 25 34  1  0
 34 35  2  0
 17 36  1  0
 36 37  2  0
  5 38  1  0
 38 39  2  0
 39  3  1  0
 37 10  1  0
 36 13  1  0
 23 18  1  0
 32 26  1  0
 34 21  1  0
  1 40  1  0
  1 41  1  0
  1 42  1  0
  2 43  1  0
  2 44  1  0
  4 45  1  0
 11 46  1  0
 12 47  1  0
 14 48  1  0
 16 49  1  0
 19 50  1  0
 20 51  1  0
 23 52  1  0
 24 53  1  0
 24 54  1  0
 26 55  1  1
 27 56  1  0
 27 57  1  0
 28 58  1  0
 28 59  1  0
 31 60  1  0
 37 61  1  0
 38 62  1  0
M  END
>  <meeko>  (48) 
{"is_sidechain": [true], "free_energy": -14.73, "intermolecular_energy": 0.0, "internal_energy": -14.73, "cluster_size": 19, "cluster_id": 1, "rank_in_cluster": 1}

>  <_RMSD_MCS_to_ref>  (48) 
0.676414113270546

$$$$
ligand
     RDKit          3D

 56 60  0  0  0  0  0  0  0  0999 V2000
   24.8540    9.4020    7.6050 C   0  0  0  0  0  0  0  0  0  0  0  0
   25.5230   10.7550    7.4270 C   0  0  0  0  0  0  0  0  0  0  0  0
   26.9900   10.6950    7.6750 C   0  0  0  0  0  0  0  0  0  0  0  0
   27.8430   11.6970    8.0910 C   0  0  0  0  0  0  0  0  0  0  0  0
   29.0590   11.0820    8.1910 N   0  0  0  0  0  0  0  0  0  0  0  0
   30.5380   11.8570    8.4200 S   0  0  0  0  0  6  0  0  0  0  0  0
   31.4820   10.7860    8.6720 O   0  0  0  0  0  0  0  0  0  0  0  0
   30.6760   12.7390    7.2770 O   0  0  0  0  0  0  0  0  0  0  0  0
   30.3700   12.7550    9.7700 O   0  0  0  0  0  0  0  0  0  0  0  0
   29.6160   13.9000    9.8090 C   0  0  0  0  0  0  0  0  0  0  0  0
   30.3250   15.0790    9.6110 C   0  0  0  0  0  0  0  0  0  0  0  0
   29.6290   16.2710    9.6440 C   0  0  0  0  0  0  0  0  0  0  0  0
   28.2990   16.3530    9.8540 N   0  0  0  0  0  0  0  0  0  0  0  0
   27.6040   15.2020   10.0280 C   0  0  0  0  0  0  0  0  0  0  0  0
   26.1470   15.3530   10.2280 C   0  0  0  0  0  0  0  0  0  0  0  0
   25.2080   14.8040    9.3220 C   0  0  0  0  0  0  0  0  0  0  0  0
   23.8140   14.9290    9.5090 C   0  0  0  0  0  0  0  0  0  0  0  0
   23.3080   15.6120   10.6100 C   0  0  0  0  0  0  0  0  0  0  0  0
   24.2240   16.1550   11.4870 C   0  0  0  0  0  0  0  0  0  0  0  0
   25.6080   16.0470   11.3120 C   0  0  0  0  0  0  0  0  0  0  0  0
   26.3010   16.7740   12.4230 C   0  0  0  0  0  0  0  0  0  0  0  0
   25.1990   17.1720   13.2920 N   0  0  0  0  0  0  0  0  0  0  0  0
   25.3500   18.1150   14.3930 C   0  0  1  0  0  0  0  0  0  0  0  0
   26.2810   17.5920   15.4840 C   0  0  0  0  0  0  0  0  0  0  0  0
   26.3190   18.5840   16.6360 C   0  0  0  0  0  0  0  0  0  0  0  0
   26.7330   19.9560   16.1580 C   0  0  0  0  0  0  0  0  0  0  0  0
   27.4150   20.7120   16.8440 O   0  0  0  0  0  0  0  0  0  0  0  0
   26.2890   20.3320   14.9170 N   0  0  0  0  0  0  0  0  0  0  0  0
   25.8530   19.4900   13.9190 C   0  0  0  0  0  0  0  0  0  0  0  0
   25.8790   19.8580   12.7470 O   0  0  0  0  0  0  0  0  0  0  0  0
   23.9660   16.9060   12.7200 C   0  0  0  0  0  0  0  0  0  0  0  0
   22.8660   17.2120   13.1370 O   0  0  0  0  0  0  0  0  0  0  0  0
   28.2390   13.9590   10.0230 C   0  0  0  0  0  0  0  0  0  0  0  0
   28.9420    9.7970    7.7690 C   0  0  0  0  0  0  0  0  0  0  0  0
   27.6890    9.5210    7.4700 N   0  0  0  0  0  0  0  0  0  0  0  0
   24.7464    9.1845    8.6779 H   0  0  0  0  0  0  0  0  0  0  0  0
   23.8606    9.4192    7.1330 H   0  0  0  0  0  0  0  0  0  0  0  0
   25.4708    8.6230    7.1330 H   0  0  0  0  0  0  0  0  0  0  0  0
   25.3519   11.1019    6.3973 H   0  0  0  0  0  0  0  0  0  0  0  0
   25.0848   11.4472    8.1611 H   0  0  0  0  0  0  0  0  0  0  0  0
   27.5996   12.7501    8.2954 H   0  0  0  0  0  0  0  0  0  0  0  0
   31.4104   15.0629    9.4330 H   0  0  0  0  0  0  0  0  0  0  0  0
   30.1897   17.2049    9.4907 H   0  0  0  0  0  0  0  0  0  0  0  0
   25.5778   14.2602    8.4402 H   0  0  0  0  0  0  0  0  0  0  0  0
   23.1231   14.4829    8.7785 H   0  0  0  0  0  0  0  0  0  0  0  0
   22.2252   15.7146   10.7742 H   0  0  0  0  0  0  0  0  0  0  0  0
   27.0023   16.1118   12.9519 H   0  0  0  0  0  0  0  0  0  0  0  0
   26.9065   17.6234   12.0740 H   0  0  0  0  0  0  0  0  0  0  0  0
   24.3410   18.2314   14.8154 H   0  0  0  0  0  0  0  0  0  0  0  0
   25.9114   16.6218   15.8475 H   0  0  0  0  0  0  0  0  0  0  0  0
   27.2939   17.4678   15.0734 H   0  0  0  0  0  0  0  0  0  0  0  0
   25.3184   18.6478   17.0884 H   0  0  0  0  0  0  0  0  0  0  0  0
   27.0553   18.2341   17.3746 H   0  0  0  0  0  0  0  0  0  0  0  0
   26.2808   21.3412   14.7114 H   0  0  0  0  0  0  0  0  0  0  0  0
   27.6607   13.0375   10.1858 H   0  0  0  0  0  0  0  0  0  0  0  0
   29.7770    9.0855    7.6880 H   0  0  0  0  0  0  0  0  0  0  0  0
  1  2  1  0
  2  3  1  0
  3  4  2  0
  4  5  1  0
  5  6  1  0
  6  7  2  0
  6  8  2  0
  6  9  1  0
  9 10  1  0
 10 11  2  0
 11 12  1  0
 12 13  2  0
 13 14  1  0
 14 15  1  0
 15 16  2  0
 16 17  1  0
 17 18  2  0
 18 19  1  0
 19 20  2  0
 20 21  1  0
 21 22  1  0
 22 23  1  0
 23 24  1  0
 24 25  1  0
 25 26  1  0
 26 27  2  0
 26 28  1  0
 28 29  1  0
 29 30  2  0
 22 31  1  0
 31 32  2  0
 14 33  2  0
  5 34  1  0
 34 35  2  0
 35  3  1  0
 33 10  1  0
 20 15  1  0
 29 23  1  0
 31 19  1  0
  1 36  1  0
  1 37  1  0
  1 38  1  0
  2 39  1  0
  2 40  1  0
  4 41  1  0
 11 42  1  0
 12 43  1  0
 16 44  1  0
 17 45  1  0
 18 46  1  0
 21 47  1  0
 21 48  1  0
 23 49  1  1
 24 50  1  0
 24 51  1  0
 25 52  1  0
 25 53  1  0
 28 54  1  0
 33 55  1  0
 34 56  1  0
M  END
>  <meeko>  (49) 
{"is_sidechain": [true], "free_energy": -14.72, "intermolecular_energy": 0.0, "internal_energy": -14.72, "cluster_size": 18, "cluster_id": 1, "rank_in_cluster": 1}

>  <_RMSD_MCS_to_ref>  (49) 
0.8062729066513395

$$$$
ligand
     RDKit          3D

 57 61  0  0  0  0  0  0  0  0999 V2000
   24.8540    9.4020    7.6050 C   0  0  0  0  0  0  0  0  0  0  0  0
   25.5230   10.7550    7.4270 C   0  0  0  0  0  0  0  0  0  0  0  0
   26.9860   10.6980    7.6980 C   0  0  0  0  0  0  0  0  0  0  0  0
   27.8170   11.6850    8.1920 C   0  0  0  0  0  0  0  0  0  0  0  0
   29.0400   11.0810    8.2710 N   0  0  0  0  0  0  0  0  0  0  0  0
   30.5020   11.8610    8.5840 S   0  0  0  0  0  6  0  0  0  0  0  0
   30.6470   12.8210    7.5060 O   0  0  0  0  0  0  0  0  0  0  0  0
   31.4560   10.7820    8.7780 O   0  0  0  0  0  0  0  0  0  0  0  0
   30.2830   12.6670    9.9930 O   0  0  0  0  0  0  0  0  0  0  0  0
   29.6760   13.8900    9.9190 C   0  0  0  0  0  0  0  0  0  0  0  0
   30.4360   15.0350    9.7060 C   0  0  0  0  0  0  0  0  0  0  0  0
   29.8000   16.2720    9.6490 C   0  0  0  0  0  0  0  0  0  0  0  0
   28.4130   16.3550    9.8090 C   0  0  0  0  0  0  0  0  0  0  0  0
   27.6360   15.2030   10.0160 C   0  0  0  0  0  0  0  0  0  0  0  0
   26.1860   15.2910   10.2230 C   0  0  0  0  0  0  0  0  0  0  0  0
   25.2860   14.6110    9.3790 C   0  0  0  0  0  0  0  0  0  0  0  0
   23.8910   14.6750    9.5750 C   0  0  0  0  0  0  0  0  0  0  0  0
   23.3570   15.4260   10.6190 C   0  0  0  0  0  0  0  0  0  0  0  0
   24.2470   16.0970   11.4340 C   0  0  0  0  0  0  0  0  0  0  0  0
   25.6300   16.0420   11.2560 C   0  0  0  0  0  0  0  0  0  0  0  0
   26.3000   16.8720   12.3060 C   0  0  0  0  0  0  0  0  0  0  0  0
   25.1780   17.4640   13.0220 N   0  0  0  0  0  0  0  0  0  0  0  0
   25.3810   18.1610   14.2860 C   0  0  1  0  0  0  0  0  0  0  0  0
   26.5460   17.6150   15.1110 C   0  0  0  0  0  0  0  0  0  0  0  0
   26.6240   18.3660   16.4310 C   0  0  0  0  0  0  0  0  0  0  0  0
   26.7600   19.8550   16.2070 C   0  0  0  0  0  0  0  0  0  0  0  0
   27.2530   20.6010   17.0480 O   0  0  0  0  0  0  0  0  0  0  0  0
   26.2290   20.3550   15.0450 N   0  0  0  0  0  0  0  0  0  0  0  0
   25.5360   19.6750   14.0680 C   0  0  0  0  0  0  0  0  0  0  0  0
   25.0020   20.2910   13.1460 O   0  0  0  0  0  0  0  0  0  0  0  0
   23.9640   16.9510   12.5930 C   0  0  0  0  0  0  0  0  0  0  0  0
   22.8580   17.1280   13.0660 O   0  0  0  0  0  0  0  0  0  0  0  0
   28.2890   13.9630   10.0420 C   0  0  0  0  0  0  0  0  0  0  0  0
   28.9510    9.8260    7.7650 C   0  0  0  0  0  0  0  0  0  0  0  0
   27.7070    9.5500    7.4310 N   0  0  0  0  0  0  0  0  0  0  0  0
   24.7464    9.1845    8.6779 H   0  0  0  0  0  0  0  0  0  0  0  0
   23.8606    9.4192    7.1330 H   0  0  0  0  0  0  0  0  0  0  0  0
   25.4708    8.6230    7.1330 H   0  0  0  0  0  0  0  0  0  0  0  0
   25.3672   11.0940    6.3922 H   0  0  0  0  0  0  0  0  0  0  0  0
   25.0724   11.4525    8.1484 H   0  0  0  0  0  0  0  0  0  0  0  0
   27.5545   12.7190    8.4600 H   0  0  0  0  0  0  0  0  0  0  0  0
   31.5269   14.9641    9.5840 H   0  0  0  0  0  0  0  0  0  0  0  0
   30.3889   17.1852    9.4779 H   0  0  0  0  0  0  0  0  0  0  0  0
   27.9223   17.3388    9.7721 H   0  0  0  0  0  0  0  0  0  0  0  0
   25.6822   14.0139    8.5444 H   0  0  0  0  0  0  0  0  0  0  0  0
   23.2192   14.1273    8.8977 H   0  0  0  0  0  0  0  0  0  0  0  0
   22.2714   15.4823   10.7874 H   0  0  0  0  0  0  0  0  0  0  0  0
   26.9099   16.2466   12.9746 H   0  0  0  0  0  0  0  0  0  0  0  0
   26.9921   17.6196   11.8910 H   0  0  0  0  0  0  0  0  0  0  0  0
   24.4715   17.9733   14.8755 H   0  0  0  0  0  0  0  0  0  0  0  0
   26.3875   16.5442   15.3065 H   0  0  0  0  0  0  0  0  0  0  0  0
   27.4856   17.7495   14.5550 H   0  0  0  0  0  0  0  0  0  0  0  0
   25.7079   18.1724   17.0084 H   0  0  0  0  0  0  0  0  0  0  0  0
   27.5104   18.0144   16.9794 H   0  0  0  0  0  0  0  0  0  0  0  0
   26.3654   21.3630   14.8833 H   0  0  0  0  0  0  0  0  0  0  0  0
   27.7025   13.0400   10.1604 H   0  0  0  0  0  0  0  0  0  0  0  0
   29.7991    9.1350    7.6496 H   0  0  0  0  0  0  0  0  0  0  0  0
  1  2  1  0
  2  3  1  0
  3  4  2  0
  4  5  1  0
  5  6  1  0
  6  7  2  0
  6  8  2  0
  6  9  1  0
  9 10  1  0
 10 11  2  0
 11 12  1  0
 12 13  2  0
 13 14  1  0
 14 15  1  0
 15 16  2  0
 16 17  1  0
 17 18  2  0
 18 19  1  0
 19 20  2  0
 20 21  1  0
 21 22  1  0
 22 23  1  0
 23 24  1  0
 24 25  1  0
 25 26  1  0
 26 27  2  0
 26 28  1  0
 28 29  1  0
 29 30  2  0
 22 31  1  0
 31 32  2  0
 14 33  2  0
  5 34  1  0
 34 35  2  0
 35  3  1  0
 33 10  1  0
 20 15  1  0
 29 23  1  0
 31 19  1  0
  1 36  1  0
  1 37  1  0
  1 38  1  0
  2 39  1  0
  2 40  1  0
  4 41  1  0
 11 42  1  0
 12 43  1  0
 13 44  1  0
 16 45  1  0
 17 46  1  0
 18 47  1  0
 21 48  1  0
 21 49  1  0
 23 50  1  1
 24 51  1  0
 24 52  1  0
 25 53  1  0
 25 54  1  0
 28 55  1  0
 33 56  1  0
 34 57  1  0
M  END
>  <meeko>  (50) 
{"is_sidechain": [true], "free_energy": -14.72, "intermolecular_energy": 0.0, "internal_energy": -14.72, "cluster_size": 20, "cluster_id": 1, "rank_in_cluster": 1}

>  <_RMSD_MCS_to_ref>  (50) 
0.5831482563541521

$$$$
ligand
     RDKit          3D

 62 67  0  0  0  0  0  0  0  0999 V2000
   24.8540    9.4020    7.6050 C   0  0  0  0  0  0  0  0  0  0  0  0
   25.5230   10.7550    7.4270 C   0  0  0  0  0  0  0  0  0  0  0  0
   26.9900   10.6950    7.6700 C   0  0  0  0  0  0  0  0  0  0  0  0
   27.8410   11.6960    8.0940 C   0  0  0  0  0  0  0  0  0  0  0  0
   29.0590   11.0830    8.1840 N   0  0  0  0  0  0  0  0  0  0  0  0
   30.5330   11.8590    8.4560 S   0  0  0  0  0  6  0  0  0  0  0  0
   31.5110   11.0870    7.7130 O   0  0  0  0  0  0  0  0  0  0  0  0
   30.6150   11.9740    9.9010 O   0  0  0  0  0  0  0  0  0  0  0  0
   30.4270   13.3740    7.8420 O   0  0  0  0  0  0  0  0  0  0  0  0
   29.7410   13.5900    6.6710 C   0  0  0  0  0  0  0  0  0  0  0  0
   30.3200   13.2230    5.4570 C   0  0  0  0  0  0  0  0  0  0  0  0
   29.6290   13.4590    4.2760 C   0  0  0  0  0  0  0  0  0  0  0  0
   28.3790   14.0800    4.3170 C   0  0  0  0  0  0  0  0  0  0  0  0
   27.7990   14.4850    5.5110 C   0  0  0  0  0  0  0  0  0  0  0  0
   26.6050   15.0940    5.4750 N   0  0  0  0  0  0  0  0  0  0  0  0
   26.0530   15.4930    6.6460 C   0  0  0  0  0  0  0  0  0  0  0  0
   26.6330   15.3210    7.8990 C   0  0  0  0  0  0  0  0  0  0  0  0
   25.9760   15.7800    9.1350 C   0  0  0  0  0  0  0  0  0  0  0  0
   24.6860   15.3070    9.4840 C   0  0  0  0  0  0  0  0  0  0  0  0
   24.0460   15.7150   10.6600 C   0  0  0  0  0  0  0  0  0  0  0  0
   24.7190   16.6060   11.4700 C   0  0  0  0  0  0  0  0  0  0  0  0
   25.9820   17.0950   11.1580 C   0  0  0  0  0  0  0  0  0  0  0  0
   26.6230   16.6910    9.9970 C   0  0  0  0  0  0  0  0  0  0  0  0
   26.4500   18.0160   12.2340 C   0  0  0  0  0  0  0  0  0  0  0  0
   25.2970   18.0830   13.1230 N   0  0  0  0  0  0  0  0  0  0  0  0
   25.3940   18.6980   14.4440 C   0  0  1  0  0  0  0  0  0  0  0  0
   26.4570   18.0650   15.3410 C   0  0  0  0  0  0  0  0  0  0  0  0
   26.4280   18.7380   16.7040 C   0  0  0  0  0  0  0  0  0  0  0  0
   26.6310   20.2310   16.5830 C   0  0  0  0  0  0  0  0  0  0  0  0
   27.0560   20.9110   17.5120 O   0  0  0  0  0  0  0  0  0  0  0  0
   26.2360   20.8120   15.4050 N   0  0  0  0  0  0  0  0  0  0  0  0
   25.6140   20.2140   14.3330 C   0  0  0  0  0  0  0  0  0  0  0  0
   25.1790   20.8970   13.4060 O   0  0  0  0  0  0  0  0  0  0  0  0
   24.3050   17.1890   12.7500 C   0  0  0  0  0  0  0  0  0  0  0  0
   23.2850   16.8970   13.3440 O   0  0  0  0  0  0  0  0  0  0  0  0
   27.8790   14.6840    7.9110 C   0  0  0  0  0  0  0  0  0  0  0  0
   28.4910   14.2460    6.7160 C   0  0  0  0  0  0  0  0  0  0  0  0
   28.9430    9.7970    7.7660 C   0  0  0  0  0  0  0  0  0  0  0  0
   27.6910    9.5230    7.4630 N   0  0  0  0  0  0  0  0  0  0  0  0
   24.7464    9.1845    8.6779 H   0  0  0  0  0  0  0  0  0  0  0  0
   23.8606    9.4192    7.1330 H   0  0  0  0  0  0  0  0  0  0  0  0
   25.4708    8.6230    7.1330 H   0  0  0  0  0  0  0  0  0  0  0  0
   25.3486   11.1034    6.3983 H   0  0  0  0  0  0  0  0  0  0  0  0
   25.0874   11.4458    8.1639 H   0  0  0  0  0  0  0  0  0  0  0  0
   27.5950   12.7462    8.3099 H   0  0  0  0  0  0  0  0  0  0  0  0
   31.3136   12.7515    5.4350 H   0  0  0  0  0  0  0  0  0  0  0  0
   30.0646   13.1579    3.3118 H   0  0  0  0  0  0  0  0  0  0  0  0
   27.8380   14.2533    3.3750 H   0  0  0  0  0  0  0  0  0  0  0  0
   25.0727   15.9902    6.6030 H   0  0  0  0  0  0  0  0  0  0  0  0
   24.1747   14.6010    8.8131 H   0  0  0  0  0  0  0  0  0  0  0  0
   23.0469   15.3404   10.9275 H   0  0  0  0  0  0  0  0  0  0  0  0
   27.6236   17.0758    9.7507 H   0  0  0  0  0  0  0  0  0  0  0  0
   27.3281   17.6050   12.7537 H   0  0  0  0  0  0  0  0  0  0  0  0
   26.7690   18.9994   11.8583 H   0  0  0  0  0  0  0  0  0  0  0  0
   24.4267   18.5080   14.9322 H   0  0  0  0  0  0  0  0  0  0  0  0
   26.2485   16.9911   15.4566 H   0  0  0  0  0  0  0  0  0  0  0  0
   27.4498   18.1960   14.8857 H   0  0  0  0  0  0  0  0  0  0  0  0
   25.4541   18.5459   17.1780 H   0  0  0  0  0  0  0  0  0  0  0  0
   27.2452   18.3244   17.3132 H   0  0  0  0  0  0  0  0  0  0  0  0
   26.4286   21.8195   15.3113 H   0  0  0  0  0  0  0  0  0  0  0  0
   28.3919   14.5212    8.8704 H   0  0  0  0  0  0  0  0  0  0  0  0
   29.7772    9.0840    7.6909 H   0  0  0  0  0  0  0  0  0  0  0  0
  1  2  1  0
  2  3  1  0
  3  4  2  0
  4  5  1  0
  5  6  1  0
  6  7  2  0
  6  8  2  0
  6  9  1  0
  9 10  1  0
 10 11  2  0
 11 12  1  0
 12 13  2  0
 13 14  1  0
 14 15  2  0
 15 16  1  0
 16 17  2  0
 17 18  1  0
 18 19  2  0
 19 20  1  0
 20 21  2  0
 21 22  1  0
 22 23  2  0
 22 24  1  0
 24 25  1  0
 25 26  1  0
 26 27  1  0
 27 28  1  0
 28 29  1  0
 29 30  2  0
 29 31  1  0
 31 32  1  0
 32 33  2  0
 25 34  1  0
 34 35  2  0
 17 36  1  0
 36 37  2  0
  5 38  1  0
 38 39  2  0
 39  3  1  0
 37 10  1  0
 37 14  1  0
 23 18  1  0
 32 26  1  0
 34 21  1  0
  1 40  1  0
  1 41  1  0
  1 42  1  0
  2 43  1  0
  2 44  1  0
  4 45  1  0
 11 46  1  0
 12 47  1  0
 13 48  1  0
 16 49  1  0
 19 50  1  0
 20 51  1  0
 23 52  1  0
 24 53  1  0
 24 54  1  0
 26 55  1  1
 27 56  1  0
 27 57  1  0
 28 58  1  0
 28 59  1  0
 31 60  1  0
 36 61  1  0
 38 62  1  0
M  END
>  <meeko>  (51) 
{"is_sidechain": [true], "free_energy": -14.7, "intermolecular_energy": 0.0, "internal_energy": -14.7, "cluster_size": 10, "cluster_id": 1, "rank_in_cluster": 1}

>  <_RMSD_MCS_to_ref>  (51) 
0.600880927379866

$$$$
ligand
     RDKit          3D

 58 62  0  0  0  0  0  0  0  0999 V2000
   24.8540    9.4020    7.6050 C   0  0  0  0  0  0  0  0  0  0  0  0
   25.5230   10.7550    7.4270 C   0  0  0  0  0  0  0  0  0  0  0  0
   26.9980   10.6820    7.6120 C   0  0  0  0  0  0  0  0  0  0  0  0
   27.9010   11.7080    7.8050 C   0  0  0  0  0  0  0  0  0  0  0  0
   29.1040   11.0750    7.9390 N   0  0  0  0  0  0  0  0  0  0  0  0
   30.6050   11.8210    7.9570 S   0  0  0  0  0  6  0  0  0  0  0  0
   31.4310   11.0660    8.8760 O   0  0  0  0  0  0  0  0  0  0  0  0
   30.9620   12.0750    6.5790 O   0  0  0  0  0  0  0  0  0  0  0  0
   30.4340   13.4170    8.7050 C   0  0  0  0  0  0  0  0  0  0  0  0
   31.3430   14.3730    9.1200 C   0  0  0  0  0  0  0  0  0  0  0  0
   30.6150   15.4690    9.6460 C   0  0  0  0  0  0  0  0  0  0  0  0
   29.2650   15.1730    9.5550 C   0  0  0  0  0  0  0  0  0  0  0  0
   28.0570   15.9000    9.9250 C   0  0  0  0  0  0  0  0  0  0  0  0
   28.0520   17.1220    9.8910 O   0  0  0  0  0  0  0  0  0  0  0  0
   27.0000   15.0990   10.2940 N   0  0  0  0  0  0  0  0  0  0  0  0
   25.6910   15.4370   10.7040 C   0  0  0  0  0  0  0  0  0  0  0  0
   24.6620   14.9870    9.8450 C   0  0  0  0  0  0  0  0  0  0  0  0
   23.3020   15.2440   10.0960 C   0  0  0  0  0  0  0  0  0  0  0  0
   22.9270   15.9650   11.2190 C   0  0  0  0  0  0  0  0  0  0  0  0
   23.9400   16.3970   12.0550 C   0  0  0  0  0  0  0  0  0  0  0  0
   25.3060   16.1530   11.8300 C   0  0  0  0  0  0  0  0  0  0  0  0
   26.0780   16.7930   12.9400 C   0  0  0  0  0  0  0  0  0  0  0  0
   25.0470   17.3290   13.8200 N   0  0  0  0  0  0  0  0  0  0  0  0
   25.3280   18.2730   14.8950 C   0  0  1  0  0  0  0  0  0  0  0  0
   26.3990   17.7620   15.8540 C   0  0  0  0  0  0  0  0  0  0  0  0
   26.5750   18.7560   16.9910 C   0  0  0  0  0  0  0  0  0  0  0  0
   26.9050   20.1340   16.4680 C   0  0  0  0  0  0  0  0  0  0  0  0
   27.6350   20.9100   17.0780 O   0  0  0  0  0  0  0  0  0  0  0  0
   26.3220   20.4960   15.2810 N   0  0  0  0  0  0  0  0  0  0  0  0
   25.7500   19.6510   14.3550 C   0  0  0  0  0  0  0  0  0  0  0  0
   25.5960   20.0220   13.1930 O   0  0  0  0  0  0  0  0  0  0  0  0
   23.7840   17.1770   13.2870 C   0  0  0  0  0  0  0  0  0  0  0  0
   22.7290   17.5920   13.7240 O   0  0  0  0  0  0  0  0  0  0  0  0
   29.1860   13.9170    8.9870 N   0  0  0  0  0  0  0  0  0  0  0  0
   28.9250    9.7410    7.7680 C   0  0  0  0  0  0  0  0  0  0  0  0
   27.6510    9.4650    7.5830 N   0  0  0  0  0  0  0  0  0  0  0  0
   24.7464    9.1845    8.6779 H   0  0  0  0  0  0  0  0  0  0  0  0
   23.8606    9.4192    7.1330 H   0  0  0  0  0  0  0  0  0  0  0  0
   25.4708    8.6230    7.1330 H   0  0  0  0  0  0  0  0  0  0  0  0
   25.3111   11.1242    6.4127 H   0  0  0  0  0  0  0  0  0  0  0  0
   25.1200   11.4341    8.1928 H   0  0  0  0  0  0  0  0  0  0  0  0
   27.6982   12.7885    7.8424 H   0  0  0  0  0  0  0  0  0  0  0  0
   32.4383   14.2961    9.0535 H   0  0  0  0  0  0  0  0  0  0  0  0
   31.0469   16.3941   10.0554 H   0  0  0  0  0  0  0  0  0  0  0  0
   27.1954   14.0881   10.2667 H   0  0  0  0  0  0  0  0  0  0  0  0
   24.9353   14.4143    8.9465 H   0  0  0  0  0  0  0  0  0  0  0  0
   22.5352   14.8724    9.4004 H   0  0  0  0  0  0  0  0  0  0  0  0
   21.8709   16.1836   11.4353 H   0  0  0  0  0  0  0  0  0  0  0  0
   26.6948   16.0501   13.4668 H   0  0  0  0  0  0  0  0  0  0  0  0
   26.7742   17.5658   12.5821 H   0  0  0  0  0  0  0  0  0  0  0  0
   24.3836   18.3779   15.4491 H   0  0  0  0  0  0  0  0  0  0  0  0
   26.0914   16.7880   16.2624 H   0  0  0  0  0  0  0  0  0  0  0  0
   27.3510   17.6485   15.3147 H   0  0  0  0  0  0  0  0  0  0  0  0
   25.6415   18.8066   17.5706 H   0  0  0  0  0  0  0  0  0  0  0  0
   27.4078   18.4159   17.6242 H   0  0  0  0  0  0  0  0  0  0  0  0
   26.3104   21.5017   15.0589 H   0  0  0  0  0  0  0  0  0  0  0  0
   28.3043   13.4188    8.7988 H   0  0  0  0  0  0  0  0  0  0  0  0
   29.7322    8.9938    7.7820 H   0  0  0  0  0  0  0  0  0  0  0  0
  1  2  1  0
  2  3  1  0
  3  4  2  0
  4  5  1  0
  5  6  1  0
  6  7  2  0
  6  8  2  0
  6  9  1  0
  9 10  2  0
 10 11  1  0
 11 12  2  0
 12 13  1  0
 13 14  2  0
 13 15  1  0
 15 16  1  0
 16 17  2  0
 17 18  1  0
 18 19  2  0
 19 20  1  0
 20 21  2  0
 21 22  1  0
 22 23  1  0
 23 24  1  0
 24 25  1  0
 25 26  1  0
 26 27  1  0
 27 28  2  0
 27 29  1  0
 29 30  1  0
 30 31  2  0
 23 32  1  0
 32 33  2  0
 12 34  1  0
  5 35  1  0
 35 36  2  0
 36  3  1  0
 34  9  1  0
 21 16  1  0
 30 24  1  0
 32 20  1  0
  1 37  1  0
  1 38  1  0
  1 39  1  0
  2 40  1  0
  2 41  1  0
  4 42  1  0
 10 43  1  0
 11 44  1  0
 15 45  1  0
 17 46  1  0
 18 47  1  0
 19 48  1  0
 22 49  1  0
 22 50  1  0
 24 51  1  1
 25 52  1  0
 25 53  1  0
 26 54  1  0
 26 55  1  0
 29 56  1  0
 34 57  1  0
 35 58  1  0
M  END
>  <meeko>  (52) 
{"is_sidechain": [true], "free_energy": -14.69, "intermolecular_energy": 0.0, "internal_energy": -14.69, "cluster_size": 14, "cluster_id": 1, "rank_in_cluster": 1}

>  <_RMSD_MCS_to_ref>  (52) 
0.6313134126565025

$$$$
ligand
     RDKit          3D

 61 66  0  0  0  0  0  0  0  0999 V2000
   24.8540    9.4020    7.6050 C   0  0  0  0  0  0  0  0  0  0  0  0
   25.5230   10.7550    7.4270 C   0  0  0  0  0  0  0  0  0  0  0  0
   27.0060   10.6430    7.3690 C   0  0  0  0  0  0  0  0  0  0  0  0
   27.9150   11.4630    6.7300 C   0  0  0  0  0  0  0  0  0  0  0  0
   29.1240   10.8830    6.9890 N   0  0  0  0  0  0  0  0  0  0  0  0
   30.6150   11.4220    6.4170 S   0  0  0  0  0  6  0  0  0  0  0  0
   30.6390   11.1070    4.9990 O   0  0  0  0  0  0  0  0  0  0  0  0
   31.5650   10.7940    7.3200 O   0  0  0  0  0  0  0  0  0  0  0  0
   30.7290   13.0230    6.6290 O   0  0  0  0  0  0  0  0  0  0  0  0
   29.5860   13.7400    6.8390 C   0  0  0  0  0  0  0  0  0  0  0  0
   29.2510   13.9130    8.1200 N   0  0  0  0  0  0  0  0  0  0  0  0
   28.0860   14.5570    8.3360 C   0  0  0  0  0  0  0  0  0  0  0  0
   27.2350   15.0150    7.3310 C   0  0  0  0  0  0  0  0  0  0  0  0
   26.0000   15.6950    7.5420 C   0  0  0  0  0  0  0  0  0  0  0  0
   25.4980   16.0100    8.8850 C   0  0  0  0  0  0  0  0  0  0  0  0
   24.2150   15.5660    9.2890 C   0  0  0  0  0  0  0  0  0  0  0  0
   23.7160   15.8540   10.5610 C   0  0  0  0  0  0  0  0  0  0  0  0
   24.5220   16.5870   11.4080 C   0  0  0  0  0  0  0  0  0  0  0  0
   25.7870   17.0400   11.0400 C   0  0  0  0  0  0  0  0  0  0  0  0
   26.2880   16.7610    9.7790 C   0  0  0  0  0  0  0  0  0  0  0  0
   26.3960   17.8200   12.1570 C   0  0  0  0  0  0  0  0  0  0  0  0
   25.4040   17.6820   13.2180 N   0  0  0  0  0  0  0  0  0  0  0  0
   25.4170   18.4790   14.4380 C   0  0  1  0  0  0  0  0  0  0  0  0
   26.3330   17.8930   15.5090 C   0  0  0  0  0  0  0  0  0  0  0  0
   26.2240   18.7260   16.7770 C   0  0  0  0  0  0  0  0  0  0  0  0
   26.5320   20.1800   16.5040 C   0  0  0  0  0  0  0  0  0  0  0  0
   27.1230   20.8900   17.3110 O   0  0  0  0  0  0  0  0  0  0  0  0
   26.1020   20.6820   15.3020 N   0  0  0  0  0  0  0  0  0  0  0  0
   25.8270   19.9380   14.1750 C   0  0  0  0  0  0  0  0  0  0  0  0
   25.9270   20.4430   13.0590 O   0  0  0  0  0  0  0  0  0  0  0  0
   24.2580   17.0340   12.7800 C   0  0  0  0  0  0  0  0  0  0  0  0
   23.2200   16.8540   13.3870 O   0  0  0  0  0  0  0  0  0  0  0  0
   25.2420   16.0770    6.4260 C   0  0  0  0  0  0  0  0  0  0  0  0
   25.6910   15.7960    5.1400 C   0  0  0  0  0  0  0  0  0  0  0  0
   26.9060   15.1330    4.9600 C   0  0  0  0  0  0  0  0  0  0  0  0
   27.6900   14.7410    6.0350 C   0  0  0  0  0  0  0  0  0  0  0  0
   28.8470   14.1110    5.7900 N   0  0  0  0  0  0  0  0  0  0  0  0
   28.9390    9.7870    7.7680 C   0  0  0  0  0  0  0  0  0  0  0  0
   27.6560    9.6050    8.0090 N   0  0  0  0  0  0  0  0  0  0  0  0
   24.7464    9.1845    8.6779 H   0  0  0  0  0  0  0  0  0  0  0  0
   23.8606    9.4192    7.1330 H   0  0  0  0  0  0  0  0  0  0  0  0
   25.4708    8.6230    7.1330 H   0  0  0  0  0  0  0  0  0  0  0  0
   25.1646   11.2075    6.4906 H   0  0  0  0  0  0  0  0  0  0  0  0
   25.2641   11.3778    8.2959 H   0  0  0  0  0  0  0  0  0  0  0  0
   27.7121   12.3734    6.1469 H   0  0  0  0  0  0  0  0  0  0  0  0
   27.7857   14.7335    9.3794 H   0  0  0  0  0  0  0  0  0  0  0  0
   23.6001   14.9833    8.5874 H   0  0  0  0  0  0  0  0  0  0  0  0
   22.7196   15.5101   10.8755 H   0  0  0  0  0  0  0  0  0  0  0  0
   27.2844   17.1190    9.4806 H   0  0  0  0  0  0  0  0  0  0  0  0
   27.3632   17.3920   12.4593 H   0  0  0  0  0  0  0  0  0  0  0  0
   26.6129   18.8657   11.8936 H   0  0  0  0  0  0  0  0  0  0  0  0
   24.3813   18.4576   14.8080 H   0  0  0  0  0  0  0  0  0  0  0  0
   26.0315   16.8571   15.7232 H   0  0  0  0  0  0  0  0  0  0  0  0
   27.3727   17.9042   15.1499 H   0  0  0  0  0  0  0  0  0  0  0  0
   25.2011   18.6442   17.1732 H   0  0  0  0  0  0  0  0  0  0  0  0
   26.9542   18.3464   17.5069 H   0  0  0  0  0  0  0  0  0  0  0  0
   25.9737   21.7019   15.2362 H   0  0  0  0  0  0  0  0  0  0  0  0
   24.2861   16.6023    6.5685 H   0  0  0  0  0  0  0  0  0  0  0  0
   25.0908   16.0951    4.2680 H   0  0  0  0  0  0  0  0  0  0  0  0
   27.2510   14.9156    3.9384 H   0  0  0  0  0  0  0  0  0  0  0  0
   29.7460    9.1416    8.1450 H   0  0  0  0  0  0  0  0  0  0  0  0
  1  2  1  0
  2  3  1  0
  3  4  2  0
  4  5  1  0
  5  6  1  0
  6  7  2  0
  6  8  2  0
  6  9  1  0
  9 10  1  0
 10 11  2  0
 11 12  1  0
 12 13  2  0
 13 14  1  0
 14 15  1  0
 15 16  2  0
 16 17  1  0
 17 18  2  0
 18 19  1  0
 19 20  2  0
 19 21  1  0
 21 22  1  0
 22 23  1  0
 23 24  1  0
 24 25  1  0
 25 26  1  0
 26 27  2  0
 26 28  1  0
 28 29  1  0
 29 30  2  0
 22 31  1  0
 31 32  2  0
 14 33  2  0
 33 34  1  0
 34 35  2  0
 35 36  1  0
 36 37  2  0
  5 38  1  0
 38 39  2  0
 39  3  1  0
 37 10  1  0
 36 13  1  0
 20 15  1  0
 29 23  1  0
 31 18  1  0
  1 40  1  0
  1 41  1  0
  1 42  1  0
  2 43  1  0
  2 44  1  0
  4 45  1  0
 12 46  1  0
 16 47  1  0
 17 48  1  0
 20 49  1  0
 21 50  1  0
 21 51  1  0
 23 52  1  1
 24 53  1  0
 24 54  1  0
 25 55  1  0
 25 56  1  0
 28 57  1  0
 33 58  1  0
 34 59  1  0
 35 60  1  0
 38 61  1  0
M  END
>  <meeko>  (53) 
{"is_sidechain": [true], "free_energy": -14.69, "intermolecular_energy": 0.0, "internal_energy": -14.69, "cluster_size": 20, "cluster_id": 1, "rank_in_cluster": 1}

>  <_RMSD_MCS_to_ref>  (53) 
0.7090713802024596

$$$$
ligand
     RDKit          3D

 56 60  0  0  0  0  0  0  0  0999 V2000
   24.8540    9.4020    7.6050 C   0  0  0  0  0  0  0  0  0  0  0  0
   25.5230   10.7550    7.4270 C   0  0  0  0  0  0  0  0  0  0  0  0
   25.1680   11.3920    6.1290 C   0  0  0  0  0  0  0  0  0  0  0  0
   24.2420   12.3840    5.8720 C   0  0  0  0  0  0  0  0  0  0  0  0
   24.3070   12.5600    4.5180 N   0  0  0  0  0  0  0  0  0  0  0  0
   23.5820   13.8110    3.6520 S   0  0  0  0  0  6  0  0  0  0  0  0
   22.1670   13.6940    3.9550 O   0  0  0  0  0  0  0  0  0  0  0  0
   24.0840   13.6590    2.2990 O   0  0  0  0  0  0  0  0  0  0  0  0
   24.1620   15.1910    4.2930 O   0  0  0  0  0  0  0  0  0  0  0  0
   24.9480   15.2130    5.4170 C   0  0  0  0  0  0  0  0  0  0  0  0
   26.2810   14.8540    5.2110 C   0  0  0  0  0  0  0  0  0  0  0  0
   27.1790   14.8370    6.2750 C   0  0  0  0  0  0  0  0  0  0  0  0
   26.7450   15.1820    7.5560 C   0  0  0  0  0  0  0  0  0  0  0  0
   25.4100   15.5500    7.7920 C   0  0  0  0  0  0  0  0  0  0  0  0
   24.9530   15.9150    9.1450 C   0  0  0  0  0  0  0  0  0  0  0  0
   23.7310   15.3970    9.6580 C   0  0  0  0  0  0  0  0  0  0  0  0
   23.2690   15.7220   10.9410 C   0  0  0  0  0  0  0  0  0  0  0  0
   24.0490   16.5750   11.6920 C   0  0  0  0  0  0  0  0  0  0  0  0
   25.2380   17.0870   11.2110 C   0  0  0  0  0  0  0  0  0  0  0  0
   25.7170   16.7790    9.9520 C   0  0  0  0  0  0  0  0  0  0  0  0
   25.8050   17.9350   12.2560 C   0  0  0  0  0  0  0  0  0  0  0  0
   26.8700   18.5160   12.1660 O   0  0  0  0  0  0  0  0  0  0  0  0
   24.9150   17.9270   13.2980 N   0  0  0  0  0  0  0  0  0  0  0  0
   25.2050   18.5420   14.5840 C   0  0  1  0  0  0  0  0  0  0  0  0
   26.3050   17.8440   15.3780 C   0  0  0  0  0  0  0  0  0  0  0  0
   26.4860   18.5540   16.7120 C   0  0  0  0  0  0  0  0  0  0  0  0
   26.7880   20.0230   16.5140 C   0  0  0  0  0  0  0  0  0  0  0  0
   27.4380   20.6740   17.3270 O   0  0  0  0  0  0  0  0  0  0  0  0
   26.2480   20.6180   15.4010 N   0  0  0  0  0  0  0  0  0  0  0  0
   25.5610   20.0160   14.3700 C   0  0  0  0  0  0  0  0  0  0  0  0
   25.2200   20.6680   13.3850 O   0  0  0  0  0  0  0  0  0  0  0  0
   23.8600   17.0920   13.0450 C   0  0  0  0  0  0  0  0  0  0  0  0
   22.9330   16.7850   13.7700 O   0  0  0  0  0  0  0  0  0  0  0  0
   24.5200   15.5630    6.7010 C   0  0  0  0  0  0  0  0  0  0  0  0
   25.2870   11.7660    4.0140 C   0  0  0  0  0  0  0  0  0  0  0  0
   25.8130   11.0220    4.9650 N   0  0  0  0  0  0  0  0  0  0  0  0
   24.7464    9.1845    8.6779 H   0  0  0  0  0  0  0  0  0  0  0  0
   23.8606    9.4192    7.1330 H   0  0  0  0  0  0  0  0  0  0  0  0
   25.4708    8.6230    7.1330 H   0  0  0  0  0  0  0  0  0  0  0  0
   25.2051   11.4177    8.2454 H   0  0  0  0  0  0  0  0  0  0  0  0
   26.6116   10.5974    7.4391 H   0  0  0  0  0  0  0  0  0  0  0  0
   23.5993   12.9117    6.5921 H   0  0  0  0  0  0  0  0  0  0  0  0
   26.6243   14.5828    4.2017 H   0  0  0  0  0  0  0  0  0  0  0  0
   28.2281   14.5523    6.1064 H   0  0  0  0  0  0  0  0  0  0  0  0
   27.4587   15.1655    8.3929 H   0  0  0  0  0  0  0  0  0  0  0  0
   23.1315   14.7220    9.0296 H   0  0  0  0  0  0  0  0  0  0  0  0
   22.3250   15.3140   11.3315 H   0  0  0  0  0  0  0  0  0  0  0  0
   26.6682   17.1970    9.5907 H   0  0  0  0  0  0  0  0  0  0  0  0
   24.2938   18.4426   15.1922 H   0  0  0  0  0  0  0  0  0  0  0  0
   26.0228   16.7956   15.5544 H   0  0  0  0  0  0  0  0  0  0  0  0
   27.2472   17.8759   14.8113 H   0  0  0  0  0  0  0  0  0  0  0  0
   25.5617   18.4539   17.2999 H   0  0  0  0  0  0  0  0  0  0  0  0
   27.3336   18.0925   17.2397 H   0  0  0  0  0  0  0  0  0  0  0  0
   26.3715   21.6380   15.3280 H   0  0  0  0  0  0  0  0  0  0  0  0
   23.4712   15.8532    6.8616 H   0  0  0  0  0  0  0  0  0  0  0  0
   25.5979   11.7470    2.9590 H   0  0  0  0  0  0  0  0  0  0  0  0
  1  2  1  0
  2  3  1  0
  3  4  2  0
  4  5  1  0
  5  6  1  0
  6  7  2  0
  6  8  2  0
  6  9  1  0
  9 10  1  0
 10 11  2  0
 11 12  1  0
 12 13  2  0
 13 14  1  0
 14 15  1  0
 15 16  2  0
 16 17  1  0
 17 18  2  0
 18 19  1  0
 19 20  2  0
 19 21  1  0
 21 22  2  0
 21 23  1  0
 23 24  1  0
 24 25  1  0
 25 26  1  0
 26 27  1  0
 27 28  2  0
 27 29  1  0
 29 30  1  0
 30 31  2  0
 23 32  1  0
 32 33  2  0
 14 34  2  0
  5 35  1  0
 35 36  2  0
 36  3  1  0
 34 10  1  0
 20 15  1  0
 30 24  1  0
 32 18  1  0
  1 37  1  0
  1 38  1  0
  1 39  1  0
  2 40  1  0
  2 41  1  0
  4 42  1  0
 11 43  1  0
 12 44  1  0
 13 45  1  0
 16 46  1  0
 17 47  1  0
 20 48  1  0
 24 49  1  1
 25 50  1  0
 25 51  1  0
 26 52  1  0
 26 53  1  0
 29 54  1  0
 34 55  1  0
 35 56  1  0
M  END
>  <meeko>  (54) 
{"is_sidechain": [true], "free_energy": -14.67, "intermolecular_energy": 0.0, "internal_energy": -14.67, "cluster_size": 18, "cluster_id": 1, "rank_in_cluster": 1}

>  <_RMSD_MCS_to_ref>  (54) 
0.41049807145304107

$$$$
ligand
     RDKit          3D

 62 67  0  0  0  0  0  0  0  0999 V2000
   24.8540    9.4020    7.6050 C   0  0  0  0  0  0  0  0  0  0  0  0
   25.5230   10.7550    7.4270 C   0  0  0  0  0  0  0  0  0  0  0  0
   24.9700   11.5030    6.2660 C   0  0  0  0  0  0  0  0  0  0  0  0
   25.5840   11.8350    5.0750 C   0  0  0  0  0  0  0  0  0  0  0  0
   24.6380   12.5560    4.4030 N   0  0  0  0  0  0  0  0  0  0  0  0
   24.7900   13.1670    2.8430 S   0  0  0  0  0  6  0  0  0  0  0  0
   25.4480   12.0910    2.1200 O   0  0  0  0  0  0  0  0  0  0  0  0
   23.4610   13.6020    2.4510 O   0  0  0  0  0  0  0  0  0  0  0  0
   25.8260   14.4360    2.8780 O   0  0  0  0  0  0  0  0  0  0  0  0
   26.7250   14.5390    3.9150 C   0  0  0  0  0  0  0  0  0  0  0  0
   28.0570   14.2360    3.6250 C   0  0  0  0  0  0  0  0  0  0  0  0
   29.0120   14.3140    4.6330 C   0  0  0  0  0  0  0  0  0  0  0  0
   28.6260   14.6780    5.9230 C   0  0  0  0  0  0  0  0  0  0  0  0
   27.2780   14.9560    6.2150 C   0  0  0  0  0  0  0  0  0  0  0  0
   26.8630   15.3100    7.5090 C   0  0  0  0  0  0  0  0  0  0  0  0
   25.5170   15.5750    7.7870 C   0  0  0  0  0  0  0  0  0  0  0  0
   25.0560   15.9490    9.1330 C   0  0  0  0  0  0  0  0  0  0  0  0
   23.8600   15.4000    9.6640 C   0  0  0  0  0  0  0  0  0  0  0  0
   23.4030   15.7340   10.9420 C   0  0  0  0  0  0  0  0  0  0  0  0
   24.1610   16.6250   11.6740 C   0  0  0  0  0  0  0  0  0  0  0  0
   25.3400   17.1810   11.1880 C   0  0  0  0  0  0  0  0  0  0  0  0
   25.7980   16.8530    9.9230 C   0  0  0  0  0  0  0  0  0  0  0  0
   25.9420   18.0750   12.2190 C   0  0  0  0  0  0  0  0  0  0  0  0
   24.9400   18.0660   13.2760 N   0  0  0  0  0  0  0  0  0  0  0  0
   25.2180   18.6430   14.5880 C   0  0  1  0  0  0  0  0  0  0  0  0
   26.2910   17.8930   15.3760 C   0  0  0  0  0  0  0  0  0  0  0  0
   26.4550   18.5390   16.7430 C   0  0  0  0  0  0  0  0  0  0  0  0
   26.7900   20.0070   16.6200 C   0  0  0  0  0  0  0  0  0  0  0  0
   27.3550   20.6260   17.5170 O   0  0  0  0  0  0  0  0  0  0  0  0
   26.3550   20.6460   15.4860 N   0  0  0  0  0  0  0  0  0  0  0  0
   25.5740   20.1340   14.4750 C   0  0  0  0  0  0  0  0  0  0  0  0
   25.1160   20.8770   13.6080 O   0  0  0  0  0  0  0  0  0  0  0  0
   23.9330   17.1440   13.0270 C   0  0  0  0  0  0  0  0  0  0  0  0
   23.0310   16.7900   13.7600 O   0  0  0  0  0  0  0  0  0  0  0  0
   24.6410   15.4580    6.7140 C   0  0  0  0  0  0  0  0  0  0  0  0
   25.0030   15.1210    5.4520 N   0  0  0  0  0  0  0  0  0  0  0  0
   26.3030   14.8810    5.2010 C   0  0  0  0  0  0  0  0  0  0  0  0
   23.4920   12.5790    5.1320 C   0  0  0  0  0  0  0  0  0  0  0  0
   23.6670   11.9710    6.2880 N   0  0  0  0  0  0  0  0  0  0  0  0
   24.7464    9.1845    8.6779 H   0  0  0  0  0  0  0  0  0  0  0  0
   23.8606    9.4192    7.1330 H   0  0  0  0  0  0  0  0  0  0  0  0
   25.4708    8.6230    7.1330 H   0  0  0  0  0  0  0  0  0  0  0  0
   25.3682   11.3502    8.3390 H   0  0  0  0  0  0  0  0  0  0  0  0
   26.5933   10.5824    7.2407 H   0  0  0  0  0  0  0  0  0  0  0  0
   26.6009   11.5781    4.7434 H   0  0  0  0  0  0  0  0  0  0  0  0
   28.3486   13.9379    2.6071 H   0  0  0  0  0  0  0  0  0  0  0  0
   30.0664   14.0898    4.4141 H   0  0  0  0  0  0  0  0  0  0  0  0
   29.3820   14.7483    6.7189 H   0  0  0  0  0  0  0  0  0  0  0  0
   27.6069   15.3801    8.3163 H   0  0  0  0  0  0  0  0  0  0  0  0
   23.2777   14.6935    9.0543 H   0  0  0  0  0  0  0  0  0  0  0  0
   22.4758   15.3036   11.3482 H   0  0  0  0  0  0  0  0  0  0  0  0
   26.7301   17.2923    9.5380 H   0  0  0  0  0  0  0  0  0  0  0  0
   26.9016   17.6754   12.5789 H   0  0  0  0  0  0  0  0  0  0  0  0
   26.1701   19.0832   11.8427 H   0  0  0  0  0  0  0  0  0  0  0  0
   24.2849   18.5376   15.1609 H   0  0  0  0  0  0  0  0  0  0  0  0
   25.9889   16.8426   15.4999 H   0  0  0  0  0  0  0  0  0  0  0  0
   27.2457   17.9362   14.8313 H   0  0  0  0  0  0  0  0  0  0  0  0
   25.5155   18.4318   17.3050 H   0  0  0  0  0  0  0  0  0  0  0  0
   27.2816   18.0371   17.2672 H   0  0  0  0  0  0  0  0  0  0  0  0
   26.6485   21.6274   15.3785 H   0  0  0  0  0  0  0  0  0  0  0  0
   23.5751   15.6534    6.9031 H   0  0  0  0  0  0  0  0  0  0  0  0
   22.5493   13.0408    4.8032 H   0  0  0  0  0  0  0  0  0  0  0  0
  1  2  1  0
  2  3  1  0
  3  4  2  0
  4  5  1  0
  5  6  1  0
  6  7  2  0
  6  8  2  0
  6  9  1  0
  9 10  1  0
 10 11  2  0
 11 12  1  0
 12 13  2  0
 13 14  1  0
 14 15  2  0
 15 16  1  0
 16 17  1  0
 17 18  2  0
 18 19  1  0
 19 20  2  0
 20 21  1  0
 21 22  2  0
 21 23  1  0
 23 24  1  0
 24 25  1  0
 25 26  1  0
 26 27  1  0
 27 28  1  0
 28 29  2  0
 28 30  1  0
 30 31  1  0
 31 32  2  0
 24 33  1  0
 33 34  2  0
 16 35  2  0
 35 36  1  0
 36 37  2  0
  5 38  1  0
 38 39  2  0
 39  3  1  0
 37 10  1  0
 37 14  1  0
 22 17  1  0
 31 25  1  0
 33 20  1  0
  1 40  1  0
  1 41  1  0
  1 42  1  0
  2 43  1  0
  2 44  1  0
  4 45  1  0
 11 46  1  0
 12 47  1  0
 13 48  1  0
 15 49  1  0
 18 50  1  0
 19 51  1  0
 22 52  1  0
 23 53  1  0
 23 54  1  0
 25 55  1  1
 26 56  1  0
 26 57  1  0
 27 58  1  0
 27 59  1  0
 30 60  1  0
 35 61  1  0
 38 62  1  0
M  END
>  <meeko>  (55) 
{"is_sidechain": [true], "free_energy": -14.67, "intermolecular_energy": 0.0, "internal_energy": -14.67, "cluster_size": 13, "cluster_id": 1, "rank_in_cluster": 1}

>  <_RMSD_MCS_to_ref>  (55) 
0.4388344410670911

$$$$
ligand
     RDKit          3D

 63 68  0  0  0  0  0  0  0  0999 V2000
   24.8540    9.4020    7.6050 C   0  0  0  0  0  0  0  0  0  0  0  0
   25.5230   10.7550    7.4270 C   0  0  0  0  0  0  0  0  0  0  0  0
   24.7340   11.6630    6.5520 C   0  0  0  0  0  0  0  0  0  0  0  0
   24.8890   11.9170    5.2040 C   0  0  0  0  0  0  0  0  0  0  0  0
   23.9410   12.8600    4.9290 N   0  0  0  0  0  0  0  0  0  0  0  0
   23.5500   13.4710    3.4140 S   0  0  0  0  0  6  0  0  0  0  0  0
   22.2350   14.0540    3.6400 O   0  0  0  0  0  0  0  0  0  0  0  0
   23.7250   12.4150    2.4370 O   0  0  0  0  0  0  0  0  0  0  0  0
   24.6620   14.8240    3.0420 C   0  0  0  0  0  0  0  0  0  0  0  0
   24.7310   15.1520    1.6710 C   0  0  0  0  0  0  0  0  0  0  0  0
   25.4330   16.2710    1.2290 C   0  0  0  0  0  0  0  0  0  0  0  0
   26.0790   17.0830    2.1490 C   0  0  0  0  0  0  0  0  0  0  0  0
   26.0410   16.7630    3.5090 C   0  0  0  0  0  0  0  0  0  0  0  0
   25.3510   15.6240    3.9770 C   0  0  0  0  0  0  0  0  0  0  0  0
   25.4480   15.3210    5.3640 N   0  0  0  0  0  0  0  0  0  0  0  0
   24.8170   15.9520    6.4180 C   0  0  0  0  0  0  0  0  0  0  0  0
   25.2620   15.3620    7.5810 C   0  0  0  0  0  0  0  0  0  0  0  0
   24.8500   15.7320    8.9220 C   0  0  0  0  0  0  0  0  0  0  0  0
   23.6650   15.1810    9.4650 C   0  0  0  0  0  0  0  0  0  0  0  0
   23.2380   15.5180   10.7530 C   0  0  0  0  0  0  0  0  0  0  0  0
   24.0110   16.4130   11.4650 C   0  0  0  0  0  0  0  0  0  0  0  0
   25.1780   16.9730   10.9520 C   0  0  0  0  0  0  0  0  0  0  0  0
   25.6140   16.6390    9.6800 C   0  0  0  0  0  0  0  0  0  0  0  0
   25.7910   17.8820   11.9630 C   0  0  0  0  0  0  0  0  0  0  0  0
   24.8140   17.8680   13.0430 N   0  0  0  0  0  0  0  0  0  0  0  0
   25.1170   18.4560   14.3440 C   0  0  1  0  0  0  0  0  0  0  0  0
   26.2980   17.7990   15.0580 C   0  0  0  0  0  0  0  0  0  0  0  0
   26.4840   18.4450   16.4220 C   0  0  0  0  0  0  0  0  0  0  0  0
   26.6790   19.9380   16.2990 C   0  0  0  0  0  0  0  0  0  0  0  0
   27.2430   20.5980   17.1670 O   0  0  0  0  0  0  0  0  0  0  0  0
   26.1190   20.5450   15.2030 N   0  0  0  0  0  0  0  0  0  0  0  0
   25.3300   19.9730   14.2310 C   0  0  0  0  0  0  0  0  0  0  0  0
   24.7600   20.6790   13.3990 O   0  0  0  0  0  0  0  0  0  0  0  0
   23.8100   16.9380   12.8200 C   0  0  0  0  0  0  0  0  0  0  0  0
   22.9260   16.5810   13.5740 O   0  0  0  0  0  0  0  0  0  0  0  0
   26.1710   14.3870    7.1330 C   0  0  0  0  0  0  0  0  0  0  0  0
   26.2630   14.3490    5.8030 N   0  0  0  0  0  0  0  0  0  0  0  0
   23.1740   13.0460    6.0360 C   0  0  0  0  0  0  0  0  0  0  0  0
   23.6660   12.3800    7.0600 N   0  0  0  0  0  0  0  0  0  0  0  0
   24.7464    9.1845    8.6779 H   0  0  0  0  0  0  0  0  0  0  0  0
   23.8606    9.4192    7.1330 H   0  0  0  0  0  0  0  0  0  0  0  0
   25.4708    8.6230    7.1330 H   0  0  0  0  0  0  0  0  0  0  0  0
   25.6372   11.2260    8.4145 H   0  0  0  0  0  0  0  0  0  0  0  0
   26.4985   10.5880    6.9469 H   0  0  0  0  0  0  0  0  0  0  0  0
   25.6116   11.4631    4.5098 H   0  0  0  0  0  0  0  0  0  0  0  0
   24.2203   14.5113    0.9370 H   0  0  0  0  0  0  0  0  0  0  0  0
   25.4747   16.5093    0.1559 H   0  0  0  0  0  0  0  0  0  0  0  0
   26.6207   17.9779    1.8088 H   0  0  0  0  0  0  0  0  0  0  0  0
   26.5596   17.4123    4.2297 H   0  0  0  0  0  0  0  0  0  0  0  0
   24.0915   16.7754    6.3428 H   0  0  0  0  0  0  0  0  0  0  0  0
   23.0706   14.4767    8.8644 H   0  0  0  0  0  0  0  0  0  0  0  0
   22.3217   15.0867   11.1823 H   0  0  0  0  0  0  0  0  0  0  0  0
   26.5380   17.0737    9.2710 H   0  0  0  0  0  0  0  0  0  0  0  0
   26.7637   17.4975   12.3035 H   0  0  0  0  0  0  0  0  0  0  0  0
   25.9966   18.8903   11.5745 H   0  0  0  0  0  0  0  0  0  0  0  0
   24.2331   18.2615   14.9693 H   0  0  0  0  0  0  0  0  0  0  0  0
   26.0992   16.7245   15.1845 H   0  0  0  0  0  0  0  0  0  0  0  0
   27.2111   17.9332   14.4594 H   0  0  0  0  0  0  0  0  0  0  0  0
   25.5925   18.2492   17.0360 H   0  0  0  0  0  0  0  0  0  0  0  0
   27.3811   18.0147   16.8911 H   0  0  0  0  0  0  0  0  0  0  0  0
   26.3126   21.5508   15.0946 H   0  0  0  0  0  0  0  0  0  0  0  0
   26.7423   13.7292    7.8045 H   0  0  0  0  0  0  0  0  0  0  0  0
   22.2670   13.6674    6.0715 H   0  0  0  0  0  0  0  0  0  0  0  0
  1  2  1  0
  2  3  1  0
  3  4  2  0
  4  5  1  0
  5  6  1  0
  6  7  2  0
  6  8  2  0
  6  9  1  0
  9 10  2  0
 10 11  1  0
 11 12  2  0
 12 13  1  0
 13 14  2  0
 14 15  1  0
 15 16  1  0
 16 17  2  0
 17 18  1  0
 18 19  2  0
 19 20  1  0
 20 21  2  0
 21 22  1  0
 22 23  2  0
 22 24  1  0
 24 25  1  0
 25 26  1  0
 26 27  1  0
 27 28  1  0
 28 29  1  0
 29 30  2  0
 29 31  1  0
 31 32  1  0
 32 33  2  0
 25 34  1  0
 34 35  2  0
 17 36  1  0
 36 37  2  0
  5 38  1  0
 38 39  2  0
 39  3  1  0
 14  9  1  0
 37 15  1  0
 23 18  1  0
 32 26  1  0
 34 21  1  0
  1 40  1  0
  1 41  1  0
  1 42  1  0
  2 43  1  0
  2 44  1  0
  4 45  1  0
 10 46  1  0
 11 47  1  0
 12 48  1  0
 13 49  1  0
 16 50  1  0
 19 51  1  0
 20 52  1  0
 23 53  1  0
 24 54  1  0
 24 55  1  0
 26 56  1  1
 27 57  1  0
 27 58  1  0
 28 59  1  0
 28 60  1  0
 31 61  1  0
 36 62  1  0
 38 63  1  0
M  END
>  <meeko>  (56) 
{"is_sidechain": [true], "free_energy": -14.66, "intermolecular_energy": 0.0, "internal_energy": -14.66, "cluster_size": 15, "cluster_id": 1, "rank_in_cluster": 1}

>  <_RMSD_MCS_to_ref>  (56) 
0.4231469405931386

$$$$
ligand
     RDKit          3D

 56 60  0  0  0  0  0  0  0  0999 V2000
   24.8540    9.4020    7.6050 C   0  0  0  0  0  0  0  0  0  0  0  0
   25.5230   10.7550    7.4270 C   0  0  0  0  0  0  0  0  0  0  0  0
   26.9860   10.6990    7.6950 C   0  0  0  0  0  0  0  0  0  0  0  0
   27.8210   11.6880    8.1740 C   0  0  0  0  0  0  0  0  0  0  0  0
   29.0440   11.0850    8.2550 N   0  0  0  0  0  0  0  0  0  0  0  0
   30.5090   11.8680    8.5380 S   0  0  0  0  0  6  0  0  0  0  0  0
   30.6790   12.7620    7.4090 O   0  0  0  0  0  0  0  0  0  0  0  0
   31.4530   10.8020    8.8150 O   0  0  0  0  0  0  0  0  0  0  0  0
   30.2950   12.7510    9.8910 O   0  0  0  0  0  0  0  0  0  0  0  0
   29.7330   13.9980    9.8610 C   0  0  0  0  0  0  0  0  0  0  0  0
   30.4010   15.2010    9.6690 C   0  0  0  0  0  0  0  0  0  0  0  0
   29.7820   16.4040    9.6440 N   0  0  0  0  0  0  0  0  0  0  0  0
   28.4390   16.4100    9.8140 C   0  0  0  0  0  0  0  0  0  0  0  0
   27.6680   15.2690   10.0170 C   0  0  0  0  0  0  0  0  0  0  0  0
   26.2210   15.3410   10.2060 C   0  0  0  0  0  0  0  0  0  0  0  0
   25.3420   14.6580    9.3420 C   0  0  0  0  0  0  0  0  0  0  0  0
   23.9450   14.7010    9.5210 C   0  0  0  0  0  0  0  0  0  0  0  0
   23.3880   15.4320   10.5690 C   0  0  0  0  0  0  0  0  0  0  0  0
   24.2580   16.1070   11.4010 C   0  0  0  0  0  0  0  0  0  0  0  0
   25.6450   16.0750   11.2390 C   0  0  0  0  0  0  0  0  0  0  0  0
   26.2890   16.8990   12.3050 C   0  0  0  0  0  0  0  0  0  0  0  0
   25.1510   17.4700   13.0120 N   0  0  0  0  0  0  0  0  0  0  0  0
   25.3250   18.1680   14.2820 C   0  0  1  0  0  0  0  0  0  0  0  0
   26.4590   17.6130   15.1440 C   0  0  0  0  0  0  0  0  0  0  0  0
   26.5080   18.3720   16.4610 C   0  0  0  0  0  0  0  0  0  0  0  0
   26.6690   19.8570   16.2320 C   0  0  0  0  0  0  0  0  0  0  0  0
   27.1330   20.6040   17.0880 O   0  0  0  0  0  0  0  0  0  0  0  0
   26.1900   20.3540   15.0450 N   0  0  0  0  0  0  0  0  0  0  0  0
   25.5020   19.6790   14.0630 C   0  0  0  0  0  0  0  0  0  0  0  0
   24.9790   20.2950   13.1350 O   0  0  0  0  0  0  0  0  0  0  0  0
   23.9500   16.9410   12.5660 C   0  0  0  0  0  0  0  0  0  0  0  0
   22.8380   17.0960   13.0300 O   0  0  0  0  0  0  0  0  0  0  0  0
   28.3490   14.0440   10.0340 C   0  0  0  0  0  0  0  0  0  0  0  0
   28.9500    9.8220    7.7670 C   0  0  0  0  0  0  0  0  0  0  0  0
   27.7040    9.5460    7.4430 N   0  0  0  0  0  0  0  0  0  0  0  0
   24.7464    9.1845    8.6779 H   0  0  0  0  0  0  0  0  0  0  0  0
   23.8606    9.4192    7.1330 H   0  0  0  0  0  0  0  0  0  0  0  0
   25.4708    8.6230    7.1330 H   0  0  0  0  0  0  0  0  0  0  0  0
   25.3652   11.0948    6.3928 H   0  0  0  0  0  0  0  0  0  0  0  0
   25.0738   11.4513    8.1504 H   0  0  0  0  0  0  0  0  0  0  0  0
   27.5610   12.7253    8.4318 H   0  0  0  0  0  0  0  0  0  0  0  0
   31.4918   15.1741    9.5298 H   0  0  0  0  0  0  0  0  0  0  0  0
   27.9227   17.3810    9.7901 H   0  0  0  0  0  0  0  0  0  0  0  0
   25.7572   14.0761    8.5060 H   0  0  0  0  0  0  0  0  0  0  0  0
   23.2889   14.1535    8.8283 H   0  0  0  0  0  0  0  0  0  0  0  0
   22.3000   15.4693   10.7264 H   0  0  0  0  0  0  0  0  0  0  0  0
   26.8969   16.2732   12.9750 H   0  0  0  0  0  0  0  0  0  0  0  0
   26.9777   17.6592   11.9078 H   0  0  0  0  0  0  0  0  0  0  0  0
   24.3976   17.9897   14.8461 H   0  0  0  0  0  0  0  0  0  0  0  0
   26.2815   16.5456   15.3416 H   0  0  0  0  0  0  0  0  0  0  0  0
   27.4159   17.7320   14.6147 H   0  0  0  0  0  0  0  0  0  0  0  0
   25.5732   18.1936   17.0126 H   0  0  0  0  0  0  0  0  0  0  0  0
   27.3737   18.0132   17.0370 H   0  0  0  0  0  0  0  0  0  0  0  0
   26.3672   21.3531   14.8683 H   0  0  0  0  0  0  0  0  0  0  0  0
   27.7874   13.1103   10.1851 H   0  0  0  0  0  0  0  0  0  0  0  0
   29.7955    9.1270    7.6576 H   0  0  0  0  0  0  0  0  0  0  0  0
  1  2  1  0
  2  3  1  0
  3  4  2  0
  4  5  1  0
  5  6  1  0
  6  7  2  0
  6  8  2  0
  6  9  1  0
  9 10  1  0
 10 11  2  0
 11 12  1  0
 12 13  2  0
 13 14  1  0
 14 15  1  0
 15 16  2  0
 16 17  1  0
 17 18  2  0
 18 19  1  0
 19 20  2  0
 20 21  1  0
 21 22  1  0
 22 23  1  0
 23 24  1  0
 24 25  1  0
 25 26  1  0
 26 27  2  0
 26 28  1  0
 28 29  1  0
 29 30  2  0
 22 31  1  0
 31 32  2  0
 14 33  2  0
  5 34  1  0
 34 35  2  0
 35  3  1  0
 33 10  1  0
 20 15  1  0
 29 23  1  0
 31 19  1  0
  1 36  1  0
  1 37  1  0
  1 38  1  0
  2 39  1  0
  2 40  1  0
  4 41  1  0
 11 42  1  0
 13 43  1  0
 16 44  1  0
 17 45  1  0
 18 46  1  0
 21 47  1  0
 21 48  1  0
 23 49  1  1
 24 50  1  0
 24 51  1  0
 25 52  1  0
 25 53  1  0
 28 54  1  0
 33 55  1  0
 34 56  1  0
M  END
>  <meeko>  (57) 
{"is_sidechain": [true], "free_energy": -14.63, "intermolecular_energy": 0.0, "internal_energy": -14.63, "cluster_size": 20, "cluster_id": 1, "rank_in_cluster": 1}

>  <_RMSD_MCS_to_ref>  (57) 
0.5640552573403893

$$$$
ligand
     RDKit          3D

 64 69  0  0  0  0  0  0  0  0999 V2000
   24.8540    9.4020    7.6050 C   0  0  0  0  0  0  0  0  0  0  0  0
   25.5230   10.7550    7.4270 C   0  0  0  0  0  0  0  0  0  0  0  0
   25.1530   11.3940    6.1350 C   0  0  0  0  0  0  0  0  0  0  0  0
   24.2020   12.3650    5.8920 C   0  0  0  0  0  0  0  0  0  0  0  0
   24.3070   12.6090    4.5520 N   0  0  0  0  0  0  0  0  0  0  0  0
   23.6350   13.9250    3.7300 S   0  0  0  0  0  6  0  0  0  0  0  0
   22.2040   13.8160    3.9480 O   0  0  0  0  0  0  0  0  0  0  0  0
   24.1940   13.8320    2.3930 O   0  0  0  0  0  0  0  0  0  0  0  0
   24.2000   15.2970    4.4220 O   0  0  0  0  0  0  0  0  0  0  0  0
   25.0330   15.2080    5.5000 C   0  0  0  0  0  0  0  0  0  0  0  0
   24.6160   15.5750    6.7830 C   0  0  0  0  0  0  0  0  0  0  0  0
   25.4750   15.4450    7.8980 C   0  0  0  0  0  0  0  0  0  0  0  0
   25.0100   15.7990    9.2480 C   0  0  0  0  0  0  0  0  0  0  0  0
   23.7230   15.4060    9.6970 C   0  0  0  0  0  0  0  0  0  0  0  0
   23.2480   15.7350   10.9740 C   0  0  0  0  0  0  0  0  0  0  0  0
   24.0750   16.4630   11.8070 C   0  0  0  0  0  0  0  0  0  0  0  0
   25.3390   16.8500   11.3710 C   0  0  0  0  0  0  0  0  0  0  0  0
   25.8300   16.5390   10.1160 C   0  0  0  0  0  0  0  0  0  0  0  0
   25.9780   17.6150   12.4460 C   0  0  0  0  0  0  0  0  0  0  0  0
   27.0540   18.1730   12.3500 O   0  0  0  0  0  0  0  0  0  0  0  0
   25.1140   17.5820   13.5310 N   0  0  0  0  0  0  0  0  0  0  0  0
   25.2640   18.4060   14.7260 C   0  0  1  0  0  0  0  0  0  0  0  0
   26.2720   17.8520   15.7320 C   0  0  0  0  0  0  0  0  0  0  0  0
   26.3030   18.7500   16.9590 C   0  0  0  0  0  0  0  0  0  0  0  0
   26.6280   20.1770   16.5860 C   0  0  0  0  0  0  0  0  0  0  0  0
   27.1040   20.9730   17.3920 O   0  0  0  0  0  0  0  0  0  0  0  0
   26.2840   20.5770   15.3180 N   0  0  0  0  0  0  0  0  0  0  0  0
   25.6080   19.8580   14.3600 C   0  0  0  0  0  0  0  0  0  0  0  0
   25.2240   20.4080   13.3280 O   0  0  0  0  0  0  0  0  0  0  0  0
   23.8370   16.9720   13.1880 C   0  0  0  0  0  0  0  0  0  0  0  0
   26.7800   14.9600    7.6930 C   0  0  0  0  0  0  0  0  0  0  0  0
   27.1940   14.6420    6.4080 C   0  0  0  0  0  0  0  0  0  0  0  0
   26.3310   14.7720    5.3160 C   0  0  0  0  0  0  0  0  0  0  0  0
   27.0070   14.3250    4.0570 C   0  0  0  0  0  0  0  0  0  0  0  0
   28.4830   14.3680    4.4740 C   0  0  0  0  0  0  0  0  0  0  0  0
   28.5180   14.0880    5.9830 C   0  0  0  0  0  0  0  0  0  0  0  0
   25.2910   11.8300    4.0330 C   0  0  0  0  0  0  0  0  0  0  0  0
   25.8180   11.0670    4.9690 N   0  0  0  0  0  0  0  0  0  0  0  0
   24.7464    9.1845    8.6779 H   0  0  0  0  0  0  0  0  0  0  0  0
   23.8606    9.4192    7.1330 H   0  0  0  0  0  0  0  0  0  0  0  0
   25.4708    8.6230    7.1330 H   0  0  0  0  0  0  0  0  0  0  0  0
   25.2142   11.4151    8.2510 H   0  0  0  0  0  0  0  0  0  0  0  0
   26.6118   10.5987    7.4293 H   0  0  0  0  0  0  0  0  0  0  0  0
   23.5165   12.8348    6.6127 H   0  0  0  0  0  0  0  0  0  0  0  0
   23.6005   15.9723    6.9274 H   0  0  0  0  0  0  0  0  0  0  0  0
   23.0776   14.8249    9.0219 H   0  0  0  0  0  0  0  0  0  0  0  0
   22.2460   15.4226   11.3031 H   0  0  0  0  0  0  0  0  0  0  0  0
   26.8348   16.8621    9.8061 H   0  0  0  0  0  0  0  0  0  0  0  0
   24.2846   18.3836   15.2262 H   0  0  0  0  0  0  0  0  0  0  0  0
   25.9746   16.8352   16.0282 H   0  0  0  0  0  0  0  0  0  0  0  0
   27.2712   17.8205   15.2731 H   0  0  0  0  0  0  0  0  0  0  0  0
   25.3181   18.7228   17.4480 H   0  0  0  0  0  0  0  0  0  0  0  0
   27.0852   18.3820   17.6392 H   0  0  0  0  0  0  0  0  0  0  0  0
   26.5665   21.5312   15.0522 H   0  0  0  0  0  0  0  0  0  0  0  0
   23.5928   16.1498   13.8768 H   0  0  0  0  0  0  0  0  0  0  0  0
   22.9890   17.6694   13.2552 H   0  0  0  0  0  0  0  0  0  0  0  0
   27.4655   14.8342    8.5441 H   0  0  0  0  0  0  0  0  0  0  0  0
   26.6984   13.3078    3.7740 H   0  0  0  0  0  0  0  0  0  0  0  0
   26.7704   14.9406    3.1767 H   0  0  0  0  0  0  0  0  0  0  0  0
   29.0536   13.5998    3.9316 H   0  0  0  0  0  0  0  0  0  0  0  0
   28.9342   15.3435    4.2399 H   0  0  0  0  0  0  0  0  0  0  0  0
   28.5908   13.0105    6.1922 H   0  0  0  0  0  0  0  0  0  0  0  0
   29.3813   14.5262    6.5052 H   0  0  0  0  0  0  0  0  0  0  0  0
   25.6042   11.8353    2.9786 H   0  0  0  0  0  0  0  0  0  0  0  0
  1  2  1  0
  2  3  1  0
  3  4  2  0
  4  5  1  0
  5  6  1  0
  6  7  2  0
  6  8  2  0
  6  9  1  0
  9 10  1  0
 10 11  2  0
 11 12  1  0
 12 13  1  0
 13 14  2  0
 14 15  1  0
 15 16  2  0
 16 17  1  0
 17 18  2  0
 17 19  1  0
 19 20  2  0
 19 21  1  0
 21 22  1  0
 22 23  1  0
 23 24  1  0
 24 25  1  0
 25 26  2  0
 25 27  1  0
 27 28  1  0
 28 29  2  0
 21 30  1  0
 12 31  2  0
 31 32  1  0
 32 33  2  0
 33 34  1  0
 34 35  1  0
 35 36  1  0
  5 37  1  0
 37 38  2  0
 38  3  1  0
 33 10  1  0
 18 13  1  0
 28 22  1  0
 36 32  1  0
 30 16  1  0
  1 39  1  0
  1 40  1  0
  1 41  1  0
  2 42  1  0
  2 43  1  0
  4 44  1  0
 11 45  1  0
 14 46  1  0
 15 47  1  0
 18 48  1  0
 22 49  1  1
 23 50  1  0
 23 51  1  0
 24 52  1  0
 24 53  1  0
 27 54  1  0
 30 55  1  0
 30 56  1  0
 31 57  1  0
 34 58  1  0
 34 59  1  0
 35 60  1  0
 35 61  1  0
 36 62  1  0
 36 63  1  0
 37 64  1  0
M  END
>  <meeko>  (58) 
{"is_sidechain": [true], "free_energy": -14.62, "intermolecular_energy": 0.0, "internal_energy": -14.62, "cluster_size": 15, "cluster_id": 1, "rank_in_cluster": 1}

>  <_RMSD_MCS_to_ref>  (58) 
0.49498540943704034

$$$$
ligand
     RDKit          3D

 62 67  0  0  0  0  0  0  0  0999 V2000
   24.8540    9.4020    7.6050 C   0  0  0  0  0  0  0  0  0  0  0  0
   25.5230   10.7550    7.4270 C   0  0  0  0  0  0  0  0  0  0  0  0
   27.0080   10.6510    7.4270 C   0  0  0  0  0  0  0  0  0  0  0  0
   27.9420   11.5730    6.9950 C   0  0  0  0  0  0  0  0  0  0  0  0
   29.1420   10.9610    7.2260 N   0  0  0  0  0  0  0  0  0  0  0  0
   30.6570   11.6120    6.8790 S   0  0  0  0  0  6  0  0  0  0  0  0
   30.7450   11.6990    5.4320 O   0  0  0  0  0  0  0  0  0  0  0  0
   31.5720   10.7530    7.6140 O   0  0  0  0  0  0  0  0  0  0  0  0
   30.7700   13.0970    7.5320 O   0  0  0  0  0  0  0  0  0  0  0  0
   29.9110   14.0800    7.1100 C   0  0  0  0  0  0  0  0  0  0  0  0
   30.2120   14.7070    5.9550 N   0  0  0  0  0  0  0  0  0  0  0  0
   29.3400   15.6380    5.5210 C   0  0  0  0  0  0  0  0  0  0  0  0
   28.1720   15.9650    6.1860 C   0  0  0  0  0  0  0  0  0  0  0  0
   27.8610   15.2950    7.3760 C   0  0  0  0  0  0  0  0  0  0  0  0
   26.6830   15.5820    8.0890 C   0  0  0  0  0  0  0  0  0  0  0  0
   26.3660   14.9140    9.2830 C   0  0  0  0  0  0  0  0  0  0  0  0
   25.1390   15.2350   10.0160 C   0  0  0  0  0  0  0  0  0  0  0  0
   23.8960   14.7030    9.6170 C   0  0  0  0  0  0  0  0  0  0  0  0
   22.7070   14.9940   10.3150 C   0  0  0  0  0  0  0  0  0  0  0  0
   22.7270   15.8290   11.4300 C   0  0  0  0  0  0  0  0  0  0  0  0
   23.9490   16.3520   11.8060 C   0  0  0  0  0  0  0  0  0  0  0  0
   25.1370   16.0720   11.1270 C   0  0  0  0  0  0  0  0  0  0  0  0
   26.2720   16.7850   11.7890 C   0  0  0  0  0  0  0  0  0  0  0  0
   25.6080   17.5490   12.8370 N   0  0  0  0  0  0  0  0  0  0  0  0
   26.3200   18.2100   13.9240 C   0  0  2  0  0  0  0  0  0  0  0  0
   25.9060   17.6870   15.2970 C   0  0  0  0  0  0  0  0  0  0  0  0
   26.7550   18.3550   16.3680 C   0  0  0  0  0  0  0  0  0  0  0  0
   26.6590   19.8600   16.2820 C   0  0  0  0  0  0  0  0  0  0  0  0
   26.6810   20.5770   17.2780 O   0  0  0  0  0  0  0  0  0  0  0  0
   26.5660   20.3990   15.0240 N   0  0  0  0  0  0  0  0  0  0  0  0
   26.1360   19.7370   13.8960 C   0  0  0  0  0  0  0  0  0  0  0  0
   25.6370   20.3610   12.9630 O   0  0  0  0  0  0  0  0  0  0  0  0
   24.2560   17.2510   12.9220 C   0  0  0  0  0  0  0  0  0  0  0  0
   23.4530   17.6420   13.7470 O   0  0  0  0  0  0  0  0  0  0  0  0
   27.2500   13.9360    9.7550 C   0  0  0  0  0  0  0  0  0  0  0  0
   28.4230   13.6380    9.0580 C   0  0  0  0  0  0  0  0  0  0  0  0
   28.7470   14.3140    7.8630 C   0  0  0  0  0  0  0  0  0  0  0  0
   28.9240    9.7340    7.7630 C   0  0  0  0  0  0  0  0  0  0  0  0
   27.6320    9.5150    7.9050 N   0  0  0  0  0  0  0  0  0  0  0  0
   24.7464    9.1845    8.6779 H   0  0  0  0  0  0  0  0  0  0  0  0
   23.8606    9.4192    7.1330 H   0  0  0  0  0  0  0  0  0  0  0  0
   25.4708    8.6230    7.1330 H   0  0  0  0  0  0  0  0  0  0  0  0
   25.1980   11.1879    6.4694 H   0  0  0  0  0  0  0  0  0  0  0  0
   25.2285   11.3920    8.2741 H   0  0  0  0  0  0  0  0  0  0  0  0
   27.7615   12.5691    6.5647 H   0  0  0  0  0  0  0  0  0  0  0  0
   29.5699   16.1680    4.5849 H   0  0  0  0  0  0  0  0  0  0  0  0
   27.4989   16.7381    5.7870 H   0  0  0  0  0  0  0  0  0  0  0  0
   25.9940   16.3474    7.7024 H   0  0  0  0  0  0  0  0  0  0  0  0
   23.8531   14.0434    8.7377 H   0  0  0  0  0  0  0  0  0  0  0  0
   21.7553   14.5583    9.9767 H   0  0  0  0  0  0  0  0  0  0  0  0
   21.8080   16.0621   11.9877 H   0  0  0  0  0  0  0  0  0  0  0  0
   26.9929   16.0718   12.2152 H   0  0  0  0  0  0  0  0  0  0  0  0
   26.8549   17.4110   11.0974 H   0  0  0  0  0  0  0  0  0  0  0  0
   27.3815   17.9726   13.7602 H   0  0  0  0  0  0  0  0  0  0  0  0
   24.8449   17.9173   15.4730 H   0  0  0  0  0  0  0  0  0  0  0  0
   26.0547   16.5978   15.3359 H   0  0  0  0  0  0  0  0  0  0  0  0
   26.4046   18.0292   17.3585 H   0  0  0  0  0  0  0  0  0  0  0  0
   27.8042   18.0637   16.2124 H   0  0  0  0  0  0  0  0  0  0  0  0
   26.8420   21.3852   14.9137 H   0  0  0  0  0  0  0  0  0  0  0  0
   27.0180   13.3964   10.6851 H   0  0  0  0  0  0  0  0  0  0  0  0
   29.1034   12.8657    9.4461 H   0  0  0  0  0  0  0  0  0  0  0  0
   29.7149    9.0218    8.0409 H   0  0  0  0  0  0  0  0  0  0  0  0
  1  2  1  0
  2  3  1  0
  3  4  2  0
  4  5  1  0
  5  6  1  0
  6  7  2  0
  6  8  2  0
  6  9  1  0
  9 10  1  0
 10 11  2  0
 11 12  1  0
 12 13  2  0
 13 14  1  0
 14 15  2  0
 15 16  1  0
 16 17  1  0
 17 18  2  0
 18 19  1  0
 19 20  2  0
 20 21  1  0
 21 22  2  0
 22 23  1  0
 23 24  1  0
 24 25  1  0
 25 26  1  0
 26 27  1  0
 27 28  1  0
 28 29  2  0
 28 30  1  0
 30 31  1  0
 31 32  2  0
 24 33  1  0
 33 34  2  0
 16 35  2  0
 35 36  1  0
 36 37  2  0
  5 38  1  0
 38 39  2  0
 39  3  1  0
 37 10  1  0
 37 14  1  0
 22 17  1  0
 31 25  1  0
 33 21  1  0
  1 40  1  0
  1 41  1  0
  1 42  1  0
  2 43  1  0
  2 44  1  0
  4 45  1  0
 12 46  1  0
 13 47  1  0
 15 48  1  0
 18 49  1  0
 19 50  1  0
 20 51  1  0
 23 52  1  0
 23 53  1  0
 25 54  1  6
 26 55  1  0
 26 56  1  0
 27 57  1  0
 27 58  1  0
 30 59  1  0
 35 60  1  0
 36 61  1  0
 38 62  1  0
M  END
>  <meeko>  (59) 
{"is_sidechain": [true], "free_energy": -14.62, "intermolecular_energy": 0.0, "internal_energy": -14.62, "cluster_size": 19, "cluster_id": 1, "rank_in_cluster": 1}

>  <_RMSD_MCS_to_ref>  (59) 
0.9588081142752174

$$$$
ligand
     RDKit          3D

 60 65  0  0  0  0  0  0  0  0999 V2000
   24.8540    9.4020    7.6050 C   0  0  0  0  0  0  0  0  0  0  0  0
   25.5230   10.7550    7.4270 C   0  0  0  0  0  0  0  0  0  0  0  0
   27.0040   10.6400    7.3390 C   0  0  0  0  0  0  0  0  0  0  0  0
   27.8920   11.4090    6.6130 C   0  0  0  0  0  0  0  0  0  0  0  0
   29.1150   10.8780    6.9140 N   0  0  0  0  0  0  0  0  0  0  0  0
   30.6020   11.4710    6.3870 S   0  0  0  0  0  6  0  0  0  0  0  0
   30.5600   11.2700    4.9490 O   0  0  0  0  0  0  0  0  0  0  0  0
   31.6100   10.8050    7.1930 O   0  0  0  0  0  0  0  0  0  0  0  0
   30.6770   13.0760    6.6460 O   0  0  0  0  0  0  0  0  0  0  0  0
   29.5320   13.7600    6.9390 C   0  0  0  0  0  0  0  0  0  0  0  0
   29.1740   13.9340    8.2560 C   0  0  0  0  0  0  0  0  0  0  0  0
   28.0860   14.6540    8.6130 N   0  0  0  0  0  0  0  0  0  0  0  0
   27.3470   15.2250    7.6140 C   0  0  0  0  0  0  0  0  0  0  0  0
   26.1890   15.9970    7.8160 C   0  0  0  0  0  0  0  0  0  0  0  0
   25.6310   16.2970    9.1590 C   0  0  0  0  0  0  0  0  0  0  0  0
   24.4540   15.6650    9.6420 C   0  0  0  0  0  0  0  0  0  0  0  0
   23.9340   15.9380   10.9130 C   0  0  0  0  0  0  0  0  0  0  0  0
   24.6120   16.8500   11.6930 C   0  0  0  0  0  0  0  0  0  0  0  0
   25.7740   17.4820   11.2660 C   0  0  0  0  0  0  0  0  0  0  0  0
   26.2940   17.2120   10.0100 C   0  0  0  0  0  0  0  0  0  0  0  0
   26.2920   18.3770   12.3400 C   0  0  0  0  0  0  0  0  0  0  0  0
   25.2530   18.2880   13.3580 N   0  0  0  0  0  0  0  0  0  0  0  0
   25.4450   18.8530   14.6890 C   0  0  1  0  0  0  0  0  0  0  0  0
   26.5780   18.1970   15.4770 C   0  0  0  0  0  0  0  0  0  0  0  0
   26.6510   18.8160   16.8650 C   0  0  0  0  0  0  0  0  0  0  0  0
   26.8320   20.3130   16.7880 C   0  0  0  0  0  0  0  0  0  0  0  0
   27.3190   20.9610   17.7100 O   0  0  0  0  0  0  0  0  0  0  0  0
   26.3460   20.9360   15.6660 N   0  0  0  0  0  0  0  0  0  0  0  0
   25.6420   20.3750   14.6260 C   0  0  0  0  0  0  0  0  0  0  0  0
   25.1250   21.0940   13.7700 O   0  0  0  0  0  0  0  0  0  0  0  0
   24.3070   17.3200   13.0480 C   0  0  0  0  0  0  0  0  0  0  0  0
   23.3980   16.9020   13.7390 O   0  0  0  0  0  0  0  0  0  0  0  0
   25.4580   16.5350    6.7930 N   0  0  0  0  0  0  0  0  0  0  0  0
   25.8880   16.3330    5.5380 C   0  0  0  0  0  0  0  0  0  0  0  0
   27.0150   15.6020    5.2400 C   0  0  0  0  0  0  0  0  0  0  0  0
   27.7430   15.0400    6.2690 C   0  0  0  0  0  0  0  0  0  0  0  0
   28.8330   14.3180    5.9370 N   0  0  0  0  0  0  0  0  0  0  0  0
   28.9520    9.8360    7.7690 C   0  0  0  0  0  0  0  0  0  0  0  0
   27.6770    9.6680    8.0550 N   0  0  0  0  0  0  0  0  0  0  0  0
   24.7464    9.1845    8.6779 H   0  0  0  0  0  0  0  0  0  0  0  0
   23.8606    9.4192    7.1330 H   0  0  0  0  0  0  0  0  0  0  0  0
   25.4708    8.6230    7.1330 H   0  0  0  0  0  0  0  0  0  0  0  0
   25.1476   11.2174    6.5022 H   0  0  0  0  0  0  0  0  0  0  0  0
   25.2827   11.3700    8.3068 H   0  0  0  0  0  0  0  0  0  0  0  0
   27.6669   12.2543    5.9460 H   0  0  0  0  0  0  0  0  0  0  0  0
   29.7909   13.4739    9.0420 H   0  0  0  0  0  0  0  0  0  0  0  0
   23.9356   14.9393    8.9981 H   0  0  0  0  0  0  0  0  0  0  0  0
   23.0202   15.4440   11.2749 H   0  0  0  0  0  0  0  0  0  0  0  0
   27.2180   17.7069    9.6764 H   0  0  0  0  0  0  0  0  0  0  0  0
   27.2573   18.0169   12.7255 H   0  0  0  0  0  0  0  0  0  0  0  0
   26.4822   19.4051   11.9983 H   0  0  0  0  0  0  0  0  0  0  0  0
   24.5178   18.6341   15.2390 H   0  0  0  0  0  0  0  0  0  0  0  0
   26.3863   17.1175   15.5660 H   0  0  0  0  0  0  0  0  0  0  0  0
   27.5315   18.3566   14.9523 H   0  0  0  0  0  0  0  0  0  0  0  0
   25.7189   18.5949   17.4056 H   0  0  0  0  0  0  0  0  0  0  0  0
   27.5166   18.3878   17.3916 H   0  0  0  0  0  0  0  0  0  0  0  0
   26.5309   21.9467   15.5939 H   0  0  0  0  0  0  0  0  0  0  0  0
   25.3130   16.7720    4.7093 H   0  0  0  0  0  0  0  0  0  0  0  0
   27.3316   15.4673    4.1952 H   0  0  0  0  0  0  0  0  0  0  0  0
   29.7703    9.2182    8.1673 H   0  0  0  0  0  0  0  0  0  0  0  0
  1  2  1  0
  2  3  1  0
  3  4  2  0
  4  5  1  0
  5  6  1  0
  6  7  2  0
  6  8  2  0
  6  9  1  0
  9 10  1  0
 10 11  2  0
 11 12  1  0
 12 13  2  0
 13 14  1  0
 14 15  1  0
 15 16  2  0
 16 17  1  0
 17 18  2  0
 18 19  1  0
 19 20  2  0
 19 21  1  0
 21 22  1  0
 22 23  1  0
 23 24  1  0
 24 25  1  0
 25 26  1  0
 26 27  2  0
 26 28  1  0
 28 29  1  0
 29 30  2  0
 22 31  1  0
 31 32  2  0
 14 33  2  0
 33 34  1  0
 34 35  2  0
 35 36  1  0
 36 37  2  0
  5 38  1  0
 38 39  2  0
 39  3  1  0
 37 10  1  0
 36 13  1  0
 20 15  1  0
 29 23  1  0
 31 18  1  0
  1 40  1  0
  1 41  1  0
  1 42  1  0
  2 43  1  0
  2 44  1  0
  4 45  1  0
 11 46  1  0
 16 47  1  0
 17 48  1  0
 20 49  1  0
 21 50  1  0
 21 51  1  0
 23 52  1  1
 24 53  1  0
 24 54  1  0
 25 55  1  0
 25 56  1  0
 28 57  1  0
 34 58  1  0
 35 59  1  0
 38 60  1  0
M  END
>  <meeko>  (60) 
{"is_sidechain": [true], "free_energy": -14.62, "intermolecular_energy": 0.0, "internal_energy": -14.62, "cluster_size": 19, "cluster_id": 1, "rank_in_cluster": 1}

>  <_RMSD_MCS_to_ref>  (60) 
0.6890086275866856

$$$$
ligand
     RDKit          3D

 60 65  0  0  0  0  0  0  0  0999 V2000
   24.8540    9.4020    7.6050 C   0  0  0  0  0  0  0  0  0  0  0  0
   25.5230   10.7550    7.4270 C   0  0  0  0  0  0  0  0  0  0  0  0
   26.9460   10.6280    7.0110 C   0  0  0  0  0  0  0  0  0  0  0  0
   28.0850   10.6590    7.7920 C   0  0  0  0  0  0  0  0  0  0  0  0
   29.1050   10.4890    6.8990 N   0  0  0  0  0  0  0  0  0  0  0  0
   30.7480   10.4950    7.2770 S   0  0  0  0  0  6  0  0  0  0  0  0
   30.9060    9.3450    8.1520 O   0  0  0  0  0  0  0  0  0  0  0  0
   31.4560   10.5510    6.0090 O   0  0  0  0  0  0  0  0  0  0  0  0
   31.1030   11.8190    8.1600 O   0  0  0  0  0  0  0  0  0  0  0  0
   30.1900   12.7350    8.4250 C   0  0  0  0  0  0  0  0  0  0  0  0
   30.1680   13.9590    7.9650 N   0  0  0  0  0  0  0  0  0  0  0  0
   29.0250   14.5150    8.4810 C   0  0  0  0  0  0  0  0  0  0  0  0
   28.4960   15.8010    8.3090 C   0  0  0  0  0  0  0  0  0  0  0  0
   27.2950   16.1250    8.9570 C   0  0  0  0  0  0  0  0  0  0  0  0
   26.6220   15.1960    9.7710 C   0  0  0  0  0  0  0  0  0  0  0  0
   25.3740   15.5710   10.4430 C   0  0  0  0  0  0  0  0  0  0  0  0
   24.1370   15.0390   10.0300 C   0  0  0  0  0  0  0  0  0  0  0  0
   22.9330   15.3740   10.6780 C   0  0  0  0  0  0  0  0  0  0  0  0
   22.9330   16.2540   11.7590 C   0  0  0  0  0  0  0  0  0  0  0  0
   24.1510   16.7770   12.1490 C   0  0  0  0  0  0  0  0  0  0  0  0
   25.3530   16.4560   11.5150 C   0  0  0  0  0  0  0  0  0  0  0  0
   26.4790   17.1870   12.1740 C   0  0  0  0  0  0  0  0  0  0  0  0
   25.7980   17.9920   13.1790 N   0  0  0  0  0  0  0  0  0  0  0  0
   26.4920   18.6940   14.2510 C   0  0  2  0  0  0  0  0  0  0  0  0
   26.2250   18.0770   15.6210 C   0  0  0  0  0  0  0  0  0  0  0  0
   27.0520   18.8040   16.6710 C   0  0  0  0  0  0  0  0  0  0  0  0
   26.7750   20.2890   16.6520 C   0  0  0  0  0  0  0  0  0  0  0  0
   26.7530   20.9670   17.6750 O   0  0  0  0  0  0  0  0  0  0  0  0
   26.5620   20.8570   15.4230 N   0  0  0  0  0  0  0  0  0  0  0  0
   26.1300   20.1880   14.3000 C   0  0  0  0  0  0  0  0  0  0  0  0
   25.4910   20.7810   13.4320 O   0  0  0  0  0  0  0  0  0  0  0  0
   24.4410   17.7140   13.2390 C   0  0  0  0  0  0  0  0  0  0  0  0
   23.6230   18.1430   14.0290 O   0  0  0  0  0  0  0  0  0  0  0  0
   27.1500   13.9010    9.9410 C   0  0  0  0  0  0  0  0  0  0  0  0
   28.3460   13.6030    9.2820 C   0  0  0  0  0  0  0  0  0  0  0  0
   29.1140   12.4670    9.2240 N   0  0  0  0  0  0  0  0  0  0  0  0
   28.5920   10.4000    5.6460 C   0  0  0  0  0  0  0  0  0  0  0  0
   27.2760   10.4600    5.6810 N   0  0  0  0  0  0  0  0  0  0  0  0
   24.7464    9.1845    8.6779 H   0  0  0  0  0  0  0  0  0  0  0  0
   23.8606    9.4192    7.1330 H   0  0  0  0  0  0  0  0  0  0  0  0
   25.4708    8.6230    7.1330 H   0  0  0  0  0  0  0  0  0  0  0  0
   24.9781   11.3211    6.6572 H   0  0  0  0  0  0  0  0  0  0  0  0
   25.4997   11.2735    8.3969 H   0  0  0  0  0  0  0  0  0  0  0  0
   28.1547   10.7903    8.8819 H   0  0  0  0  0  0  0  0  0  0  0  0
   29.0117   16.5408    7.6791 H   0  0  0  0  0  0  0  0  0  0  0  0
   26.8688   17.1305    8.8254 H   0  0  0  0  0  0  0  0  0  0  0  0
   24.1110   14.3432    9.1784 H   0  0  0  0  0  0  0  0  0  0  0  0
   21.9853   14.9382   10.3287 H   0  0  0  0  0  0  0  0  0  0  0  0
   22.0018   16.5211   12.2801 H   0  0  0  0  0  0  0  0  0  0  0  0
   27.1868   16.4862   12.6409 H   0  0  0  0  0  0  0  0  0  0  0  0
   27.0800   17.7840   11.4723 H   0  0  0  0  0  0  0  0  0  0  0  0
   27.5619   18.5910   14.0169 H   0  0  0  0  0  0  0  0  0  0  0  0
   25.1565   18.1720   15.8646 H   0  0  0  0  0  0  0  0  0  0  0  0
   26.5028   17.0128   15.6058 H   0  0  0  0  0  0  0  0  0  0  0  0
   26.8013   18.4048   17.6649 H   0  0  0  0  0  0  0  0  0  0  0  0
   28.1172   18.6453   16.4469 H   0  0  0  0  0  0  0  0  0  0  0  0
   26.7397   21.8675   15.3321 H   0  0  0  0  0  0  0  0  0  0  0  0
   26.6411   13.1538   10.5677 H   0  0  0  0  0  0  0  0  0  0  0  0
   28.9154   11.5739    9.6971 H   0  0  0  0  0  0  0  0  0  0  0  0
   29.1907   10.2928    4.7294 H   0  0  0  0  0  0  0  0  0  0  0  0
  1  2  1  0
  2  3  1  0
  3  4  2  0
  4  5  1  0
  5  6  1  0
  6  7  2  0
  6  8  2  0
  6  9  1  0
  9 10  1  0
 10 11  2  0
 11 12  1  0
 12 13  2  0
 13 14  1  0
 14 15  2  0
 15 16  1  0
 16 17  2  0
 17 18  1  0
 18 19  2  0
 19 20  1  0
 20 21  2  0
 21 22  1  0
 22 23  1  0
 23 24  1  0
 24 25  1  0
 25 26  1  0
 26 27  1  0
 27 28  2  0
 27 29  1  0
 29 30  1  0
 30 31  2  0
 23 32  1  0
 32 33  2  0
 15 34  1  0
 34 35  2  0
 35 36  1  0
  5 37  1  0
 37 38  2  0
 38  3  1  0
 36 10  1  0
 35 12  1  0
 21 16  1  0
 30 24  1  0
 32 20  1  0
  1 39  1  0
  1 40  1  0
  1 41  1  0
  2 42  1  0
  2 43  1  0
  4 44  1  0
 13 45  1  0
 14 46  1  0
 17 47  1  0
 18 48  1  0
 19 49  1  0
 22 50  1  0
 22 51  1  0
 24 52  1  6
 25 53  1  0
 25 54  1  0
 26 55  1  0
 26 56  1  0
 29 57  1  0
 34 58  1  0
 36 59  1  0
 37 60  1  0
M  END
>  <meeko>  (61) 
{"is_sidechain": [true], "free_energy": -14.6, "intermolecular_energy": 0.0, "internal_energy": -14.6, "cluster_size": 15, "cluster_id": 1, "rank_in_cluster": 1}

>  <_RMSD_MCS_to_ref>  (61) 
0.9589349416004301

$$$$
ligand
     RDKit          3D

 60 64  0  0  0  0  0  0  0  0999 V2000
   24.8540    9.4020    7.6050 C   0  0  0  0  0  0  0  0  0  0  0  0
   25.5230   10.7550    7.4270 C   0  0  0  0  0  0  0  0  0  0  0  0
   27.0080   10.6530    7.4300 C   0  0  0  0  0  0  0  0  0  0  0  0
   27.9430   11.5800    7.0120 C   0  0  0  0  0  0  0  0  0  0  0  0
   29.1420   10.9600    7.2140 N   0  0  0  0  0  0  0  0  0  0  0  0
   30.6580   11.6790    7.1090 S   0  0  0  0  0  6  0  0  0  0  0  0
   30.8010   12.1280    5.7390 O   0  0  0  0  0  0  0  0  0  0  0  0
   31.5740   10.7360    7.7210 O   0  0  0  0  0  0  0  0  0  0  0  0
   30.5220   13.1040    8.1540 C   0  0  0  0  0  0  0  0  0  0  0  0
   31.6470   13.5800    8.8320 C   0  0  0  0  0  0  0  0  0  0  0  0
   31.5350   14.7080    9.6450 C   0  0  0  0  0  0  0  0  0  0  0  0
   30.3040   15.3540    9.7850 C   0  0  0  0  0  0  0  0  0  0  0  0
   29.1740   14.8690    9.1110 C   0  0  0  0  0  0  0  0  0  0  0  0
   27.8430   15.5330    9.2240 C   0  0  0  0  0  0  0  0  0  0  0  0
   27.6210   16.4790    8.4810 O   0  0  0  0  0  0  0  0  0  0  0  0
   26.9860   14.9670   10.1420 N   0  0  0  0  0  0  0  0  0  0  0  0
   25.6810   15.3550   10.5210 C   0  0  0  0  0  0  0  0  0  0  0  0
   24.6500   14.9300    9.6510 C   0  0  0  0  0  0  0  0  0  0  0  0
   23.2960   15.2280    9.8840 C   0  0  0  0  0  0  0  0  0  0  0  0
   22.9280   15.9600   11.0040 C   0  0  0  0  0  0  0  0  0  0  0  0
   23.9420   16.3660   11.8500 C   0  0  0  0  0  0  0  0  0  0  0  0
   25.3030   16.0870   11.6390 C   0  0  0  0  0  0  0  0  0  0  0  0
   26.0830   16.7070   12.7540 C   0  0  0  0  0  0  0  0  0  0  0  0
   25.0560   17.2510   13.6350 N   0  0  0  0  0  0  0  0  0  0  0  0
   25.3510   18.1790   14.7210 C   0  0  1  0  0  0  0  0  0  0  0  0
   26.4540   17.6670   15.6420 C   0  0  0  0  0  0  0  0  0  0  0  0
   26.6430   18.6410   16.7960 C   0  0  0  0  0  0  0  0  0  0  0  0
   26.9370   20.0340   16.2930 C   0  0  0  0  0  0  0  0  0  0  0  0
   27.6590   20.8140   16.9060 O   0  0  0  0  0  0  0  0  0  0  0  0
   26.3270   20.4080   15.1230 N   0  0  0  0  0  0  0  0  0  0  0  0
   25.7370   19.5750   14.1980 C   0  0  0  0  0  0  0  0  0  0  0  0
   25.5390   19.9690   13.0500 O   0  0  0  0  0  0  0  0  0  0  0  0
   23.7950   17.1390   13.0880 C   0  0  0  0  0  0  0  0  0  0  0  0
   22.7460   17.5780   13.5180 O   0  0  0  0  0  0  0  0  0  0  0  0
   29.2880   13.7510    8.2750 C   0  0  0  0  0  0  0  0  0  0  0  0
   28.9250    9.7390    7.7670 C   0  0  0  0  0  0  0  0  0  0  0  0
   27.6350    9.5180    7.9080 N   0  0  0  0  0  0  0  0  0  0  0  0
   24.7464    9.1845    8.6779 H   0  0  0  0  0  0  0  0  0  0  0  0
   23.8606    9.4192    7.1330 H   0  0  0  0  0  0  0  0  0  0  0  0
   25.4708    8.6230    7.1330 H   0  0  0  0  0  0  0  0  0  0  0  0
   25.1996   11.1867    6.4683 H   0  0  0  0  0  0  0  0  0  0  0  0
   25.2267   11.3921    8.2734 H   0  0  0  0  0  0  0  0  0  0  0  0
   27.7625   12.5873    6.6086 H   0  0  0  0  0  0  0  0  0  0  0  0
   32.6150   13.0685    8.7254 H   0  0  0  0  0  0  0  0  0  0  0  0
   32.4185   15.0901   10.1775 H   0  0  0  0  0  0  0  0  0  0  0  0
   30.2211   16.2447   10.4251 H   0  0  0  0  0  0  0  0  0  0  0  0
   27.3519   14.1345   10.6257 H   0  0  0  0  0  0  0  0  0  0  0  0
   24.9175   14.3446    8.7590 H   0  0  0  0  0  0  0  0  0  0  0  0
   22.5275   14.8806    9.1778 H   0  0  0  0  0  0  0  0  0  0  0  0
   21.8757   16.2061   11.2091 H   0  0  0  0  0  0  0  0  0  0  0  0
   26.6880   15.9515   13.2767 H   0  0  0  0  0  0  0  0  0  0  0  0
   26.7923   17.4714   12.4039 H   0  0  0  0  0  0  0  0  0  0  0  0
   24.4196   18.2578   15.3010 H   0  0  0  0  0  0  0  0  0  0  0  0
   26.1728   16.6798   16.0375 H   0  0  0  0  0  0  0  0  0  0  0  0
   27.3937   17.5810   15.0767 H   0  0  0  0  0  0  0  0  0  0  0  0
   25.7239   18.6643   17.3999 H   0  0  0  0  0  0  0  0  0  0  0  0
   27.4967   18.3021   17.4012 H   0  0  0  0  0  0  0  0  0  0  0  0
   26.3081   21.4164   14.9143 H   0  0  0  0  0  0  0  0  0  0  0  0
   28.4133   13.3845    7.7177 H   0  0  0  0  0  0  0  0  0  0  0  0
   29.7170    9.0328    8.0568 H   0  0  0  0  0  0  0  0  0  0  0  0
  1  2  1  0
  2  3  1  0
  3  4  2  0
  4  5  1  0
  5  6  1  0
  6  7  2  0
  6  8  2  0
  6  9  1  0
  9 10  2  0
 10 11  1  0
 11 12  2  0
 12 13  1  0
 13 14  1  0
 14 15  2  0
 14 16  1  0
 16 17  1  0
 17 18  2  0
 18 19  1  0
 19 20  2  0
 20 21  1  0
 21 22  2  0
 22 23  1  0
 23 24  1  0
 24 25  1  0
 25 26  1  0
 26 27  1  0
 27 28  1  0
 28 29  2  0
 28 30  1  0
 30 31  1  0
 31 32  2  0
 24 33  1  0
 33 34  2  0
 13 35  2  0
  5 36  1  0
 36 37  2  0
 37  3  1  0
 35  9  1  0
 22 17  1  0
 31 25  1  0
 33 21  1  0
  1 38  1  0
  1 39  1  0
  1 40  1  0
  2 41  1  0
  2 42  1  0
  4 43  1  0
 10 44  1  0
 11 45  1  0
 12 46  1  0
 16 47  1  0
 18 48  1  0
 19 49  1  0
 20 50  1  0
 23 51  1  0
 23 52  1  0
 25 53  1  1
 26 54  1  0
 26 55  1  0
 27 56  1  0
 27 57  1  0
 30 58  1  0
 35 59  1  0
 36 60  1  0
M  END
>  <meeko>  (62) 
{"is_sidechain": [true], "free_energy": -14.59, "intermolecular_energy": 0.0, "internal_energy": -14.59, "cluster_size": 16, "cluster_id": 1, "rank_in_cluster": 1}

>  <_RMSD_MCS_to_ref>  (62) 
0.6510701767090851

$$$$
ligand
     RDKit          3D

 62 66  0  0  0  0  0  0  0  0999 V2000
   24.8540    9.4020    7.6050 C   0  0  0  0  0  0  0  0  0  0  0  0
   25.5230   10.7550    7.4270 C   0  0  0  0  0  0  0  0  0  0  0  0
   27.0060   10.6460    7.3410 C   0  0  0  0  0  0  0  0  0  0  0  0
   27.9090   11.5340    6.7880 C   0  0  0  0  0  0  0  0  0  0  0  0
   29.1180   10.9230    6.9520 N   0  0  0  0  0  0  0  0  0  0  0  0
   30.6090   11.5370    6.4820 S   0  0  0  0  0  6  0  0  0  0  0  0
   30.3580   12.4410    5.3760 O   0  0  0  0  0  0  0  0  0  0  0  0
   31.4500   10.3620    6.3390 O   0  0  0  0  0  0  0  0  0  0  0  0
   31.2040   12.4900    7.8440 C   0  0  0  0  0  0  0  0  0  0  0  0
   32.4400   12.1500    8.4090 C   0  0  0  0  0  0  0  0  0  0  0  0
   32.9290   12.8750    9.4950 C   0  0  0  0  0  0  0  0  0  0  0  0
   32.1840   13.9320   10.0180 C   0  0  0  0  0  0  0  0  0  0  0  0
   30.9570   14.2740    9.4470 C   0  0  0  0  0  0  0  0  0  0  0  0
   30.4760   13.5730    8.3380 C   0  0  0  0  0  0  0  0  0  0  0  0
   29.2580   13.8840    7.8070 O   0  0  0  0  0  0  0  0  0  0  0  0
   28.9290   15.2760    7.9480 C   0  0  0  0  0  0  0  0  0  0  0  0
   27.6200   15.3710    8.6040 C   0  0  0  0  0  0  0  0  0  0  0  0
   26.5580   15.4070    9.1640 C   0  0  0  0  0  0  0  0  0  0  0  0
   25.3130   15.5090    9.8580 C   0  0  0  0  0  0  0  0  0  0  0  0
   24.1340   14.9940    9.3030 C   0  0  0  0  0  0  0  0  0  0  0  0
   22.9040   15.1150    9.9800 C   0  0  0  0  0  0  0  0  0  0  0  0
   22.8340   15.7520   11.2200 C   0  0  0  0  0  0  0  0  0  0  0  0
   24.0130   16.2460   11.7460 C   0  0  0  0  0  0  0  0  0  0  0  0
   25.2370   16.1340   11.0900 C   0  0  0  0  0  0  0  0  0  0  0  0
   26.3070   16.7770   11.9040 C   0  0  0  0  0  0  0  0  0  0  0  0
   25.6000   17.1710   13.1130 N   0  0  0  0  0  0  0  0  0  0  0  0
   26.2480   18.0130   14.1080 C   0  0  2  0  0  0  0  0  0  0  0  0
   25.7850   17.7430   15.5390 C   0  0  0  0  0  0  0  0  0  0  0  0
   26.5950   18.6040   16.4950 C   0  0  0  0  0  0  0  0  0  0  0  0
   26.4860   20.0690   16.1430 C   0  0  0  0  0  0  0  0  0  0  0  0
   26.6860   20.9580   16.9680 O   0  0  0  0  0  0  0  0  0  0  0  0
   26.2260   20.3730   14.8310 N   0  0  0  0  0  0  0  0  0  0  0  0
   26.0940   19.5030   13.7700 C   0  0  0  0  0  0  0  0  0  0  0  0
   25.9590   19.9420   12.6290 O   0  0  0  0  0  0  0  0  0  0  0  0
   24.2370   16.9550   13.0130 C   0  0  0  0  0  0  0  0  0  0  0  0
   23.3590   17.2780   13.7890 O   0  0  0  0  0  0  0  0  0  0  0  0
   28.9410    9.7490    7.6080 C   0  0  0  0  0  0  0  0  0  0  0  0
   27.6620    9.5430    7.8540 N   0  0  0  0  0  0  0  0  0  0  0  0
   24.7464    9.1845    8.6779 H   0  0  0  0  0  0  0  0  0  0  0  0
   23.8606    9.4192    7.1330 H   0  0  0  0  0  0  0  0  0  0  0  0
   25.4708    8.6230    7.1330 H   0  0  0  0  0  0  0  0  0  0  0  0
   25.1480   11.2159    6.5013 H   0  0  0  0  0  0  0  0  0  0  0  0
   25.2814   11.3681    8.3078 H   0  0  0  0  0  0  0  0  0  0  0  0
   27.7010   12.5088    6.3228 H   0  0  0  0  0  0  0  0  0  0  0  0
   33.0232   11.3133    7.9970 H   0  0  0  0  0  0  0  0  0  0  0  0
   33.9010   12.6138    9.9388 H   0  0  0  0  0  0  0  0  0  0  0  0
   32.5641   14.4970   10.8819 H   0  0  0  0  0  0  0  0  0  0  0  0
   30.3662   15.0989    9.8719 H   0  0  0  0  0  0  0  0  0  0  0  0
   29.6909   15.7789    8.5617 H   0  0  0  0  0  0  0  0  0  0  0  0
   28.8970   15.7618    6.9616 H   0  0  0  0  0  0  0  0  0  0  0  0
   24.1690   14.4888    8.3265 H   0  0  0  0  0  0  0  0  0  0  0  0
   21.9901   14.7034    9.5268 H   0  0  0  0  0  0  0  0  0  0  0  0
   21.8796   15.8566   11.7567 H   0  0  0  0  0  0  0  0  0  0  0  0
   27.1139   16.0648   12.1312 H   0  0  0  0  0  0  0  0  0  0  0  0
   26.7968   17.6186   11.3923 H   0  0  0  0  0  0  0  0  0  0  0  0
   27.3135   17.7428   14.0668 H   0  0  0  0  0  0  0  0  0  0  0  0
   24.7176   17.9915   15.6338 H   0  0  0  0  0  0  0  0  0  0  0  0
   25.9326   16.6803   15.7819 H   0  0  0  0  0  0  0  0  0  0  0  0
   26.2203   18.4527   17.5181 H   0  0  0  0  0  0  0  0  0  0  0  0
   27.6514   18.3069   16.4187 H   0  0  0  0  0  0  0  0  0  0  0  0
   26.1160   21.3734   14.6119 H   0  0  0  0  0  0  0  0  0  0  0  0
   29.7521    9.0637    7.8950 H   0  0  0  0  0  0  0  0  0  0  0  0
  1  2  1  0
  2  3  1  0
  3  4  2  0
  4  5  1  0
  5  6  1  0
  6  7  2  0
  6  8  2  0
  6  9  1  0
  9 10  2  0
 10 11  1  0
 11 12  2  0
 12 13  1  0
 13 14  2  0
 14 15  1  0
 15 16  1  0
 16 17  1  0
 17 18  3  0
 18 19  1  0
 19 20  2  0
 20 21  1  0
 21 22  2  0
 22 23  1  0
 23 24  2  0
 24 25  1  0
 25 26  1  0
 26 27  1  0
 27 28  1  0
 28 29  1  0
 29 30  1  0
 30 31  2  0
 30 32  1  0
 32 33  1  0
 33 34  2  0
 26 35  1  0
 35 36  2  0
  5 37  1  0
 37 38  2  0
 38  3  1  0
 14  9  1  0
 24 19  1  0
 33 27  1  0
 35 23  1  0
  1 39  1  0
  1 40  1  0
  1 41  1  0
  2 42  1  0
  2 43  1  0
  4 44  1  0
 10 45  1  0
 11 46  1  0
 12 47  1  0
 13 48  1  0
 16 49  1  0
 16 50  1  0
 20 51  1  0
 21 52  1  0
 22 53  1  0
 25 54  1  0
 25 55  1  0
 27 56  1  1
 28 57  1  0
 28 58  1  0
 29 59  1  0
 29 60  1  0
 32 61  1  0
 37 62  1  0
M  END
>  <meeko>  (63) 
{"is_sidechain": [true], "free_energy": -14.58, "intermolecular_energy": 0.0, "internal_energy": -14.58, "cluster_size": 20, "cluster_id": 1, "rank_in_cluster": 1}

>  <_RMSD_MCS_to_ref>  (63) 
1.0590534557906985

$$$$
ligand
     RDKit          3D

 62 67  0  0  0  0  0  0  0  0999 V2000
   24.8540    9.4020    7.6050 C   0  0  0  0  0  0  0  0  0  0  0  0
   25.5230   10.7550    7.4270 C   0  0  0  0  0  0  0  0  0  0  0  0
   25.1450   11.4040    6.1430 C   0  0  0  0  0  0  0  0  0  0  0  0
   24.4590   12.5850    5.9360 C   0  0  0  0  0  0  0  0  0  0  0  0
   24.3920   12.6990    4.5750 N   0  0  0  0  0  0  0  0  0  0  0  0
   23.6060   13.9300    3.7360 S   0  0  0  0  0  6  0  0  0  0  0  0
   22.2070   13.7270    4.0730 O   0  0  0  0  0  0  0  0  0  0  0  0
   24.0450   13.8280    2.3540 O   0  0  0  0  0  0  0  0  0  0  0  0
   24.0460   15.3650    4.3610 O   0  0  0  0  0  0  0  0  0  0  0  0
   25.0330   15.4180    5.3140 C   0  0  0  0  0  0  0  0  0  0  0  0
   24.6600   15.6990    6.5790 N   0  0  0  0  0  0  0  0  0  0  0  0
   25.6290   15.7710    7.5260 C   0  0  0  0  0  0  0  0  0  0  0  0
   25.1530   16.0340    8.8990 C   0  0  0  0  0  0  0  0  0  0  0  0
   23.9480   15.4670    9.3930 C   0  0  0  0  0  0  0  0  0  0  0  0
   23.4770   15.7430   10.6840 C   0  0  0  0  0  0  0  0  0  0  0  0
   24.2230   16.6040   11.4610 C   0  0  0  0  0  0  0  0  0  0  0  0
   25.4050   17.1800   11.0130 C   0  0  0  0  0  0  0  0  0  0  0  0
   25.8860   16.8910    9.7470 C   0  0  0  0  0  0  0  0  0  0  0  0
   25.9770   18.0680   12.0640 C   0  0  0  0  0  0  0  0  0  0  0  0
   24.9660   18.0080   13.1130 N   0  0  0  0  0  0  0  0  0  0  0  0
   25.2110   18.5780   14.4320 C   0  0  1  0  0  0  0  0  0  0  0  0
   26.3040   17.8570   15.2200 C   0  0  0  0  0  0  0  0  0  0  0  0
   26.4350   18.4920   16.5950 C   0  0  0  0  0  0  0  0  0  0  0  0
   26.7200   19.9730   16.4900 C   0  0  0  0  0  0  0  0  0  0  0  0
   27.2640   20.6000   17.3940 O   0  0  0  0  0  0  0  0  0  0  0  0
   26.2640   20.6100   15.3630 N   0  0  0  0  0  0  0  0  0  0  0  0
   25.5150   20.0820   14.3370 C   0  0  0  0  0  0  0  0  0  0  0  0
   25.0460   20.8190   13.4700 O   0  0  0  0  0  0  0  0  0  0  0  0
   23.9720   17.0840   12.8240 C   0  0  0  0  0  0  0  0  0  0  0  0
   23.0620   16.7010   13.5340 O   0  0  0  0  0  0  0  0  0  0  0  0
   26.9750   15.6060    7.2120 C   0  0  0  0  0  0  0  0  0  0  0  0
   27.3540   15.3450    5.8880 C   0  0  0  0  0  0  0  0  0  0  0  0
   28.7040   15.1810    5.5330 C   0  0  0  0  0  0  0  0  0  0  0  0
   29.0700   14.9210    4.2120 C   0  0  0  0  0  0  0  0  0  0  0  0
   28.0940   14.8210    3.2270 C   0  0  0  0  0  0  0  0  0  0  0  0
   26.7490   14.9800    3.5620 C   0  0  0  0  0  0  0  0  0  0  0  0
   26.3610   15.2450    4.8950 C   0  0  0  0  0  0  0  0  0  0  0  0
   24.9940   11.6240    4.0070 C   0  0  0  0  0  0  0  0  0  0  0  0
   25.4810   10.8220    4.9340 N   0  0  0  0  0  0  0  0  0  0  0  0
   24.7464    9.1845    8.6779 H   0  0  0  0  0  0  0  0  0  0  0  0
   23.8606    9.4192    7.1330 H   0  0  0  0  0  0  0  0  0  0  0  0
   25.4708    8.6230    7.1330 H   0  0  0  0  0  0  0  0  0  0  0  0
   25.2224   11.4108    8.2574 H   0  0  0  0  0  0  0  0  0  0  0  0
   26.6113   10.5950    7.4170 H   0  0  0  0  0  0  0  0  0  0  0  0
   24.0584   13.2756    6.6927 H   0  0  0  0  0  0  0  0  0  0  0  0
   23.3687   14.7930    8.7448 H   0  0  0  0  0  0  0  0  0  0  0  0
   22.5486   15.2905   11.0625 H   0  0  0  0  0  0  0  0  0  0  0  0
   26.8355   17.3277    9.4039 H   0  0  0  0  0  0  0  0  0  0  0  0
   26.9447   17.6873   12.4225 H   0  0  0  0  0  0  0  0  0  0  0  0
   26.1821   19.0894   11.7108 H   0  0  0  0  0  0  0  0  0  0  0  0
   24.2782   18.4334   14.9968 H   0  0  0  0  0  0  0  0  0  0  0  0
   26.0382   16.7952   15.3296 H   0  0  0  0  0  0  0  0  0  0  0  0
   27.2606   17.9402   14.6834 H   0  0  0  0  0  0  0  0  0  0  0  0
   25.4956   18.3460   17.1483 H   0  0  0  0  0  0  0  0  0  0  0  0
   27.2741   18.0129   17.1207 H   0  0  0  0  0  0  0  0  0  0  0  0
   26.5132   21.6055   15.2746 H   0  0  0  0  0  0  0  0  0  0  0  0
   27.7387   15.6802    8.0002 H   0  0  0  0  0  0  0  0  0  0  0  0
   29.4821   15.2586    6.3067 H   0  0  0  0  0  0  0  0  0  0  0  0
   30.1309   14.7951    3.9498 H   0  0  0  0  0  0  0  0  0  0  0  0
   28.3818   14.6168    2.1851 H   0  0  0  0  0  0  0  0  0  0  0  0
   25.9809   14.8981    2.7789 H   0  0  0  0  0  0  0  0  0  0  0  0
   25.0659   11.4460    2.9239 H   0  0  0  0  0  0  0  0  0  0  0  0
  1  2  1  0
  2  3  1  0
  3  4  2  0
  4  5  1  0
  5  6  1  0
  6  7  2  0
  6  8  2  0
  6  9  1  0
  9 10  1  0
 10 11  2  0
 11 12  1  0
 12 13  1  0
 13 14  2  0
 14 15  1  0
 15 16  2  0
 16 17  1  0
 17 18  2  0
 17 19  1  0
 19 20  1  0
 20 21  1  0
 21 22  1  0
 22 23  1  0
 23 24  1  0
 24 25  2  0
 24 26  1  0
 26 27  1  0
 27 28  2  0
 20 29  1  0
 29 30  2  0
 12 31  2  0
 31 32  1  0
 32 33  2  0
 33 34  1  0
 34 35  2  0
 35 36  1  0
 36 37  2  0
  5 38  1  0
 38 39  2  0
 39  3  1  0
 37 10  1  0
 18 13  1  0
 27 21  1  0
 37 32  1  0
 29 16  1  0
  1 40  1  0
  1 41  1  0
  1 42  1  0
  2 43  1  0
  2 44  1  0
  4 45  1  0
 14 46  1  0
 15 47  1  0
 18 48  1  0
 19 49  1  0
 19 50  1  0
 21 51  1  1
 22 52  1  0
 22 53  1  0
 23 54  1  0
 23 55  1  0
 26 56  1  0
 31 57  1  0
 33 58  1  0
 34 59  1  0
 35 60  1  0
 36 61  1  0
 38 62  1  0
M  END
>  <meeko>  (64) 
{"is_sidechain": [true], "free_energy": -14.58, "intermolecular_energy": 0.0, "internal_energy": -14.58, "cluster_size": 13, "cluster_id": 1, "rank_in_cluster": 1}

>  <_RMSD_MCS_to_ref>  (64) 
0.4341570376411423

$$$$
ligand
     RDKit          3D

 61 66  0  0  0  0  0  0  0  0999 V2000
   24.8540    9.4020    7.6050 C   0  0  0  0  0  0  0  0  0  0  0  0
   25.5230   10.7550    7.4270 C   0  0  0  0  0  0  0  0  0  0  0  0
   26.9960   10.6360    7.2570 C   0  0  0  0  0  0  0  0  0  0  0  0
   27.7920   11.0910    6.2230 C   0  0  0  0  0  0  0  0  0  0  0  0
   29.0590   10.7430    6.5970 N   0  0  0  0  0  0  0  0  0  0  0  0
   30.4320   10.8270    5.6230 S   0  0  0  0  0  6  0  0  0  0  0  0
   31.5010   10.2940    6.4460 O   0  0  0  0  0  0  0  0  0  0  0  0
   30.0400   10.1910    4.3790 O   0  0  0  0  0  0  0  0  0  0  0  0
   30.6960   12.4140    5.3580 O   0  0  0  0  0  0  0  0  0  0  0  0
   29.6770   13.3250    5.2490 C   0  0  0  0  0  0  0  0  0  0  0  0
   29.2280   13.9020    4.0640 C   0  0  0  0  0  0  0  0  0  0  0  0
   28.1780   14.8190    4.1000 C   0  0  0  0  0  0  0  0  0  0  0  0
   27.5800   15.1570    5.3280 C   0  0  0  0  0  0  0  0  0  0  0  0
   26.5330   16.0570    5.4530 C   0  0  0  0  0  0  0  0  0  0  0  0
   25.9580   16.3830    6.6260 N   0  0  0  0  0  0  0  0  0  0  0  0
   26.4570   15.7800    7.7220 C   0  0  0  0  0  0  0  0  0  0  0  0
   25.8510   16.1140    9.0300 C   0  0  0  0  0  0  0  0  0  0  0  0
   24.6210   15.5280    9.4420 C   0  0  0  0  0  0  0  0  0  0  0  0
   24.0300   15.8260   10.6750 C   0  0  0  0  0  0  0  0  0  0  0  0
   24.6860   16.7230   11.4910 C   0  0  0  0  0  0  0  0  0  0  0  0
   25.8900   17.3180   11.1330 C   0  0  0  0  0  0  0  0  0  0  0  0
   26.4810   17.0230    9.9130 C   0  0  0  0  0  0  0  0  0  0  0  0
   26.3610   18.2140   12.2280 C   0  0  0  0  0  0  0  0  0  0  0  0
   25.2600   18.1610   13.1810 N   0  0  0  0  0  0  0  0  0  0  0  0
   25.3860   18.7330   14.5170 C   0  0  1  0  0  0  0  0  0  0  0  0
   26.4560   18.0610   15.3770 C   0  0  0  0  0  0  0  0  0  0  0  0
   26.4590   18.6910   16.7600 C   0  0  0  0  0  0  0  0  0  0  0  0
   26.6780   20.1840   16.6820 C   0  0  0  0  0  0  0  0  0  0  0  0
   27.1210   20.8310   17.6260 O   0  0  0  0  0  0  0  0  0  0  0  0
   26.2740   20.8070   15.5270 N   0  0  0  0  0  0  0  0  0  0  0  0
   25.6210   20.2510   14.4510 C   0  0  0  0  0  0  0  0  0  0  0  0
   25.1700   20.9710   13.5600 O   0  0  0  0  0  0  0  0  0  0  0  0
   24.3110   17.2150   12.8210 C   0  0  0  0  0  0  0  0  0  0  0  0
   23.3490   16.8290   13.4570 O   0  0  0  0  0  0  0  0  0  0  0  0
   27.4700   14.8900    7.7070 N   0  0  0  0  0  0  0  0  0  0  0  0
   28.0200   14.5870    6.5240 C   0  0  0  0  0  0  0  0  0  0  0  0
   29.0670   13.6760    6.4620 C   0  0  0  0  0  0  0  0  0  0  0  0
   29.0020   10.0390    7.7570 C   0  0  0  0  0  0  0  0  0  0  0  0
   27.7630    9.9780    8.2000 N   0  0  0  0  0  0  0  0  0  0  0  0
   24.7464    9.1845    8.6779 H   0  0  0  0  0  0  0  0  0  0  0  0
   23.8606    9.4192    7.1330 H   0  0  0  0  0  0  0  0  0  0  0  0
   25.4708    8.6230    7.1330 H   0  0  0  0  0  0  0  0  0  0  0  0
   25.1020   11.2438    6.5360 H   0  0  0  0  0  0  0  0  0  0  0  0
   25.3348   11.3466    8.3350 H   0  0  0  0  0  0  0  0  0  0  0  0
   27.4773   11.6139    5.3079 H   0  0  0  0  0  0  0  0  0  0  0  0
   29.6984   13.6363    3.1058 H   0  0  0  0  0  0  0  0  0  0  0  0
   27.8171   15.2783    3.1679 H   0  0  0  0  0  0  0  0  0  0  0  0
   26.1489   16.5334    4.5389 H   0  0  0  0  0  0  0  0  0  0  0  0
   24.1185   14.8176    8.7691 H   0  0  0  0  0  0  0  0  0  0  0  0
   23.0802   15.3631   10.9809 H   0  0  0  0  0  0  0  0  0  0  0  0
   27.4351   17.4936    9.6332 H   0  0  0  0  0  0  0  0  0  0  0  0
   27.2921   17.8370   12.6762 H   0  0  0  0  0  0  0  0  0  0  0  0
   26.5951   19.2335   11.8876 H   0  0  0  0  0  0  0  0  0  0  0  0
   24.4243   18.5379   15.0140 H   0  0  0  0  0  0  0  0  0  0  0  0
   26.2365   16.9866   15.4633 H   0  0  0  0  0  0  0  0  0  0  0  0
   27.4424   18.1956   14.9091 H   0  0  0  0  0  0  0  0  0  0  0  0
   25.4912   18.4955   17.2450 H   0  0  0  0  0  0  0  0  0  0  0  0
   27.2816   18.2491   17.3414 H   0  0  0  0  0  0  0  0  0  0  0  0
   26.4854   21.8127   15.4576 H   0  0  0  0  0  0  0  0  0  0  0  0
   29.4288   13.2157    7.3933 H   0  0  0  0  0  0  0  0  0  0  0  0
   29.8695    9.5833    8.2569 H   0  0  0  0  0  0  0  0  0  0  0  0
  1  2  1  0
  2  3  1  0
  3  4  2  0
  4  5  1  0
  5  6  1  0
  6  7  2  0
  6  8  2  0
  6  9  1  0
  9 10  1  0
 10 11  2  0
 11 12  1  0
 12 13  2  0
 13 14  1  0
 14 15  2  0
 15 16  1  0
 16 17  1  0
 17 18  2  0
 18 19  1  0
 19 20  2  0
 20 21  1  0
 21 22  2  0
 21 23  1  0
 23 24  1  0
 24 25  1  0
 25 26  1  0
 26 27  1  0
 27 28  1  0
 28 29  2  0
 28 30  1  0
 30 31  1  0
 31 32  2  0
 24 33  1  0
 33 34  2  0
 16 35  2  0
 35 36  1  0
 36 37  2  0
  5 38  1  0
 38 39  2  0
 39  3  1  0
 37 10  1  0
 36 13  1  0
 22 17  1  0
 31 25  1  0
 33 20  1  0
  1 40  1  0
  1 41  1  0
  1 42  1  0
  2 43  1  0
  2 44  1  0
  4 45  1  0
 11 46  1  0
 12 47  1  0
 14 48  1  0
 18 49  1  0
 19 50  1  0
 22 51  1  0
 23 52  1  0
 23 53  1  0
 25 54  1  1
 26 55  1  0
 26 56  1  0
 27 57  1  0
 27 58  1  0
 30 59  1  0
 37 60  1  0
 38 61  1  0
M  END
>  <meeko>  (65) 
{"is_sidechain": [true], "free_energy": -14.57, "intermolecular_energy": 0.0, "internal_energy": -14.57, "cluster_size": 15, "cluster_id": 1, "rank_in_cluster": 1}

>  <_RMSD_MCS_to_ref>  (65) 
0.5929705819946809

$$$$
ligand
     RDKit          3D

 61 66  0  0  0  0  0  0  0  0999 V2000
   24.8710    9.6160    7.7820 C   0  0  0  0  0  0  0  0  0  0  0  0
   25.4240   10.9650    7.3490 C   0  0  0  0  0  0  0  0  0  0  0  0
   26.5320   11.4270    8.2290 C   0  0  0  0  0  0  0  0  0  0  0  0
   27.8940   11.3870    8.0050 C   0  0  0  0  0  0  0  0  0  0  0  0
   28.4360   11.9050    9.1470 N   0  0  0  0  0  0  0  0  0  0  0  0
   30.0510   12.3340    9.3620 S   0  0  0  0  0  6  0  0  0  0  0  0
   30.2160   12.4660   10.7960 O   0  0  0  0  0  0  0  0  0  0  0  0
   30.8010   11.3550    8.5970 O   0  0  0  0  0  0  0  0  0  0  0  0
   30.2280   13.7980    8.6690 O   0  0  0  0  0  0  0  0  0  0  0  0
   29.4220   14.2190    7.6480 C   0  0  0  0  0  0  0  0  0  0  0  0
   29.6890   14.1330    6.2940 C   0  0  0  0  0  0  0  0  0  0  0  0
   28.8380   14.5680    5.3330 N   0  0  0  0  0  0  0  0  0  0  0  0
   27.6690   15.1160    5.7050 C   0  0  0  0  0  0  0  0  0  0  0  0
   26.8030   15.5380    4.7160 C   0  0  0  0  0  0  0  0  0  0  0  0
   25.5890   16.0900    5.0680 C   0  0  0  0  0  0  0  0  0  0  0  0
   25.1900   16.2550    6.3420 N   0  0  0  0  0  0  0  0  0  0  0  0
   26.0430   15.8620    7.3200 C   0  0  0  0  0  0  0  0  0  0  0  0
   25.5330   16.1090    8.6800 C   0  0  0  0  0  0  0  0  0  0  0  0
   24.2800   15.5890    9.0920 C   0  0  0  0  0  0  0  0  0  0  0  0
   23.7800   15.8220   10.3780 C   0  0  0  0  0  0  0  0  0  0  0  0
   24.5640   16.5660   11.2350 C   0  0  0  0  0  0  0  0  0  0  0  0
   25.8060   17.0780   10.8690 C   0  0  0  0  0  0  0  0  0  0  0  0
   26.3040   16.8550    9.5960 C   0  0  0  0  0  0  0  0  0  0  0  0
   26.4040   17.8370   12.0050 C   0  0  0  0  0  0  0  0  0  0  0  0
   25.4240   17.6410   13.0670 N   0  0  0  0  0  0  0  0  0  0  0  0
   25.4230   18.4030   14.3100 C   0  0  1  0  0  0  0  0  0  0  0  0
   26.3420   17.7980   15.3680 C   0  0  0  0  0  0  0  0  0  0  0  0
   26.2190   18.5950   16.6580 C   0  0  0  0  0  0  0  0  0  0  0  0
   26.5120   20.0590   16.4250 C   0  0  0  0  0  0  0  0  0  0  0  0
   27.0890   20.7540   17.2550 O   0  0  0  0  0  0  0  0  0  0  0  0
   26.0810   20.5880   15.2350 N   0  0  0  0  0  0  0  0  0  0  0  0
   25.8160   19.8740   14.0880 C   0  0  0  0  0  0  0  0  0  0  0  0
   25.9090   20.4120   12.9870 O   0  0  0  0  0  0  0  0  0  0  0  0
   24.2980   16.9650   12.6210 C   0  0  0  0  0  0  0  0  0  0  0  0
   23.2710   16.7360   13.2290 O   0  0  0  0  0  0  0  0  0  0  0  0
   27.2980   15.2670    7.0510 C   0  0  0  0  0  0  0  0  0  0  0  0
   28.2110   14.7920    8.0240 C   0  0  0  0  0  0  0  0  0  0  0  0
   27.4350   12.3080    9.9710 C   0  0  0  0  0  0  0  0  0  0  0  0
   26.2630   12.0080    9.4530 N   0  0  0  0  0  0  0  0  0  0  0  0
   24.8497    9.5640    8.8806 H   0  0  0  0  0  0  0  0  0  0  0  0
   23.8507    9.4948    7.3893 H   0  0  0  0  0  0  0  0  0  0  0  0
   25.5127    8.8135    7.3893 H   0  0  0  0  0  0  0  0  0  0  0  0
   25.8016   10.8791    6.3194 H   0  0  0  0  0  0  0  0  0  0  0  0
   24.6096   11.7013    7.4166 H   0  0  0  0  0  0  0  0  0  0  0  0
   28.4217   11.0217    7.1116 H   0  0  0  0  0  0  0  0  0  0  0  0
   30.6442   13.6872    5.9797 H   0  0  0  0  0  0  0  0  0  0  0  0
   27.0789   15.4349    3.6562 H   0  0  0  0  0  0  0  0  0  0  0  0
   24.9110   16.4125    4.2641 H   0  0  0  0  0  0  0  0  0  0  0  0
   23.6879   14.9892    8.3852 H   0  0  0  0  0  0  0  0  0  0  0  0
   22.8022   15.4282   10.6925 H   0  0  0  0  0  0  0  0  0  0  0  0
   27.2865   17.2538    9.3035 H   0  0  0  0  0  0  0  0  0  0  0  0
   27.3837   17.4239   12.2871 H   0  0  0  0  0  0  0  0  0  0  0  0
   26.5935   18.8955   11.7734 H   0  0  0  0  0  0  0  0  0  0  0  0
   24.3869   18.3583   14.6767 H   0  0  0  0  0  0  0  0  0  0  0  0
   26.0515   16.7533   15.5527 H   0  0  0  0  0  0  0  0  0  0  0  0
   27.3827   17.8304   15.0133 H   0  0  0  0  0  0  0  0  0  0  0  0
   25.1956   18.4914   17.0478 H   0  0  0  0  0  0  0  0  0  0  0  0
   26.9503   18.2038   17.3806 H   0  0  0  0  0  0  0  0  0  0  0  0
   25.9437   21.6081   15.1962 H   0  0  0  0  0  0  0  0  0  0  0  0
   27.9594   14.8772    9.0914 H   0  0  0  0  0  0  0  0  0  0  0  0
   27.5829   12.8143   10.9363 H   0  0  0  0  0  0  0  0  0  0  0  0
  1  2  1  0
  2  3  1  0
  3  4  2  0
  4  5  1  0
  5  6  1  0
  6  7  2  0
  6  8  2  0
  6  9  1  0
  9 10  1  0
 10 11  2  0
 11 12  1  0
 12 13  2  0
 13 14  1  0
 14 15  2  0
 15 16  1  0
 16 17  2  0
 17 18  1  0
 18 19  2  0
 19 20  1  0
 20 21  2  0
 21 22  1  0
 22 23  2  0
 22 24  1  0
 24 25  1  0
 25 26  1  0
 26 27  1  0
 27 28  1  0
 28 29  1  0
 29 30  2  0
 29 31  1  0
 31 32  1  0
 32 33  2  0
 25 34  1  0
 34 35  2  0
 17 36  1  0
 36 37  2  0
  5 38  1  0
 38 39  2  0
 39  3  1  0
 37 10  1  0
 36 13  1  0
 23 18  1  0
 32 26  1  0
 34 21  1  0
  1 40  1  0
  1 41  1  0
  1 42  1  0
  2 43  1  0
  2 44  1  0
  4 45  1  0
 11 46  1  0
 14 47  1  0
 15 48  1  0
 19 49  1  0
 20 50  1  0
 23 51  1  0
 24 52  1  0
 24 53  1  0
 26 54  1  1
 27 55  1  0
 27 56  1  0
 28 57  1  0
 28 58  1  0
 31 59  1  0
 37 60  1  0
 38 61  1  0
M  END
>  <meeko>  (66) 
{"is_sidechain": [true], "free_energy": -14.57, "intermolecular_energy": 0.0, "internal_energy": -14.57, "cluster_size": 19, "cluster_id": 1, "rank_in_cluster": 1}

>  <_RMSD_MCS_to_ref>  (66) 
0.7038135967338002

$$$$
ligand
     RDKit          3D

 60 65  0  0  0  0  0  0  0  0999 V2000
   24.8540    9.4020    7.6050 C   0  0  0  0  0  0  0  0  0  0  0  0
   25.5230   10.7550    7.4270 C   0  0  0  0  0  0  0  0  0  0  0  0
   26.7210   10.6790    6.5460 C   0  0  0  0  0  0  0  0  0  0  0  0
   26.9920   11.3750    5.3860 C   0  0  0  0  0  0  0  0  0  0  0  0
   28.2040   10.8910    4.9790 N   0  0  0  0  0  0  0  0  0  0  0  0
   29.1660   11.5440    3.7580 S   0  0  0  0  0  6  0  0  0  0  0  0
   28.4610   11.2300    2.5290 O   0  0  0  0  0  0  0  0  0  0  0  0
   30.4970   11.0320    4.0280 O   0  0  0  0  0  0  0  0  0  0  0  0
   29.1450   13.1640    3.9990 O   0  0  0  0  0  0  0  0  0  0  0  0
   28.3760   13.7370    4.9260 C   0  0  0  0  0  0  0  0  0  0  0  0
   28.4050   13.7710    6.3040 C   0  0  0  0  0  0  0  0  0  0  0  0
   27.3040   14.5560    6.7470 C   0  0  0  0  0  0  0  0  0  0  0  0
   26.8220   14.9420    8.0150 C   0  0  0  0  0  0  0  0  0  0  0  0
   25.6710   15.7470    8.1250 C   0  0  0  0  0  0  0  0  0  0  0  0
   25.1620   16.1520    9.4470 C   0  0  0  0  0  0  0  0  0  0  0  0
   23.8970   15.6910    9.9060 C   0  0  0  0  0  0  0  0  0  0  0  0
   23.3850   16.0560   11.1590 C   0  0  0  0  0  0  0  0  0  0  0  0
   24.1620   16.8880   11.9360 C   0  0  0  0  0  0  0  0  0  0  0  0
   25.3930   17.3450   11.5090 C   0  0  0  0  0  0  0  0  0  0  0  0
   25.9200   16.9980   10.2790 C   0  0  0  0  0  0  0  0  0  0  0  0
   25.9420   18.1850   12.5690 C   0  0  0  0  0  0  0  0  0  0  0  0
   27.0320   18.7230   12.5250 O   0  0  0  0  0  0  0  0  0  0  0  0
   25.0030   18.2290   13.5640 N   0  0  0  0  0  0  0  0  0  0  0  0
   25.2520   18.8530   14.8540 C   0  0  1  0  0  0  0  0  0  0  0  0
   26.2980   18.1390   15.7070 C   0  0  0  0  0  0  0  0  0  0  0  0
   26.4390   18.8640   17.0360 C   0  0  0  0  0  0  0  0  0  0  0  0
   26.7890   20.3210   16.8330 C   0  0  0  0  0  0  0  0  0  0  0  0
   27.4200   20.9660   17.6650 O   0  0  0  0  0  0  0  0  0  0  0  0
   26.3150   20.9140   15.6890 N   0  0  0  0  0  0  0  0  0  0  0  0
   25.6580   20.3160   14.6370 C   0  0  0  0  0  0  0  0  0  0  0  0
   25.3790   20.9620   13.6280 O   0  0  0  0  0  0  0  0  0  0  0  0
   23.9270   17.4340   13.2710 C   0  0  0  0  0  0  0  0  0  0  0  0
   22.9530   17.1770   13.9520 O   0  0  0  0  0  0  0  0  0  0  0  0
   25.0200   16.1520    6.9490 C   0  0  0  0  0  0  0  0  0  0  0  0
   25.4770   15.7840    5.6780 C   0  0  0  0  0  0  0  0  0  0  0  0
   26.6220   14.9860    5.6120 C   0  0  0  0  0  0  0  0  0  0  0  0
   27.2920   14.4760    4.5240 N   0  0  0  0  0  0  0  0  0  0  0  0
   28.6630   10.0100    5.9060 C   0  0  0  0  0  0  0  0  0  0  0  0
   27.7730    9.8400    6.8610 N   0  0  0  0  0  0  0  0  0  0  0  0
   24.7464    9.1845    8.6779 H   0  0  0  0  0  0  0  0  0  0  0  0
   23.8606    9.4192    7.1330 H   0  0  0  0  0  0  0  0  0  0  0  0
   25.4708    8.6230    7.1330 H   0  0  0  0  0  0  0  0  0  0  0  0
   24.7987   11.4522    6.9806 H   0  0  0  0  0  0  0  0  0  0  0  0
   25.8538   11.1009    8.4174 H   0  0  0  0  0  0  0  0  0  0  0  0
   26.3738   12.1440    4.8996 H   0  0  0  0  0  0  0  0  0  0  0  0
   29.1484   13.2780    6.9477 H   0  0  0  0  0  0  0  0  0  0  0  0
   27.3478   14.6126    8.9233 H   0  0  0  0  0  0  0  0  0  0  0  0
   23.3031   15.0288    9.2589 H   0  0  0  0  0  0  0  0  0  0  0  0
   22.4061   15.6943   11.5068 H   0  0  0  0  0  0  0  0  0  0  0  0
   26.9037   17.3722    9.9593 H   0  0  0  0  0  0  0  0  0  0  0  0
   24.3120   18.7839   15.4212 H   0  0  0  0  0  0  0  0  0  0  0  0
   25.9806   17.1011   15.8860 H   0  0  0  0  0  0  0  0  0  0  0  0
   27.2647   18.1380   15.1822 H   0  0  0  0  0  0  0  0  0  0  0  0
   25.4872   18.7971   17.5833 H   0  0  0  0  0  0  0  0  0  0  0  0
   27.2504   18.3884   17.6064 H   0  0  0  0  0  0  0  0  0  0  0  0
   26.4696   21.9291   15.6079 H   0  0  0  0  0  0  0  0  0  0  0  0
   24.1203   16.7798    7.0290 H   0  0  0  0  0  0  0  0  0  0  0  0
   24.9549   16.1105    4.7665 H   0  0  0  0  0  0  0  0  0  0  0  0
   27.0177   14.6280    3.5429 H   0  0  0  0  0  0  0  0  0  0  0  0
   29.6414    9.5089    5.8643 H   0  0  0  0  0  0  0  0  0  0  0  0
  1  2  1  0
  2  3  1  0
  3  4  2  0
  4  5  1  0
  5  6  1  0
  6  7  2  0
  6  8  2  0
  6  9  1  0
  9 10  1  0
 10 11  2  0
 11 12  1  0
 12 13  2  0
 13 14  1  0
 14 15  1  0
 15 16  2  0
 16 17  1  0
 17 18  2  0
 18 19  1  0
 19 20  2  0
 19 21  1  0
 21 22  2  0
 21 23  1  0
 23 24  1  0
 24 25  1  0
 25 26  1  0
 26 27  1  0
 27 28  2  0
 27 29  1  0
 29 30  1  0
 30 31  2  0
 23 32  1  0
 32 33  2  0
 14 34  2  0
 34 35  1  0
 35 36  2  0
 36 37  1  0
  5 38  1  0
 38 39  2  0
 39  3  1  0
 37 10  1  0
 36 12  1  0
 20 15  1  0
 30 24  1  0
 32 18  1  0
  1 40  1  0
  1 41  1  0
  1 42  1  0
  2 43  1  0
  2 44  1  0
  4 45  1  0
 11 46  1  0
 13 47  1  0
 16 48  1  0
 17 49  1  0
 20 50  1  0
 24 51  1  1
 25 52  1  0
 25 53  1  0
 26 54  1  0
 26 55  1  0
 29 56  1  0
 34 57  1  0
 35 58  1  0
 37 59  1  0
 38 60  1  0
M  END
>  <meeko>  (67) 
{"is_sidechain": [true], "free_energy": -14.56, "intermolecular_energy": 0.0, "internal_energy": -14.56, "cluster_size": 19, "cluster_id": 1, "rank_in_cluster": 1}

>  <_RMSD_MCS_to_ref>  (67) 
0.6526764554934972

$$$$
ligand
     RDKit          3D

 59 64  0  0  0  0  0  0  0  0999 V2000
   24.8540    9.4020    7.6050 C   0  0  0  0  0  0  0  0  0  0  0  0
   25.5230   10.7550    7.4270 C   0  0  0  0  0  0  0  0  0  0  0  0
   25.2190   11.3650    6.1040 C   0  0  0  0  0  0  0  0  0  0  0  0
   24.1950   12.2260    5.7620 C   0  0  0  0  0  0  0  0  0  0  0  0
   24.3860   12.4620    4.4290 N   0  0  0  0  0  0  0  0  0  0  0  0
   23.5820   13.6340    3.5270 S   0  0  0  0  0  6  0  0  0  0  0  0
   23.8210   13.2260    2.1540 O   0  0  0  0  0  0  0  0  0  0  0  0
   22.2250   13.6890    4.0450 O   0  0  0  0  0  0  0  0  0  0  0  0
   24.3440   15.0640    3.7490 O   0  0  0  0  0  0  0  0  0  0  0  0
   25.6480   15.1480    4.1840 C   0  0  0  0  0  0  0  0  0  0  0  0
   26.6820   14.9190    3.3490 C   0  0  0  0  0  0  0  0  0  0  0  0
   28.0610   14.9990    3.8070 C   0  0  0  0  0  0  0  0  0  0  0  0
   28.3010   15.2870    5.0970 C   0  0  0  0  0  0  0  0  0  0  0  0
   27.2250   15.4900    5.9590 N   0  0  0  0  0  0  0  0  0  0  0  0
   27.2270   15.7810    7.2990 C   0  0  0  0  0  0  0  0  0  0  0  0
   25.9000   15.8490    7.6690 C   0  0  0  0  0  0  0  0  0  0  0  0
   25.3950   16.1320    9.0040 C   0  0  0  0  0  0  0  0  0  0  0  0
   24.1860   15.5250    9.4280 C   0  0  0  0  0  0  0  0  0  0  0  0
   23.6430   15.7670   10.6980 C   0  0  0  0  0  0  0  0  0  0  0  0
   24.3370   16.6240   11.5230 C   0  0  0  0  0  0  0  0  0  0  0  0
   25.5160   17.2210   11.1210 C   0  0  0  0  0  0  0  0  0  0  0  0
   26.0730   16.9990    9.8750 C   0  0  0  0  0  0  0  0  0  0  0  0
   25.9830   18.0550   12.2250 C   0  0  0  0  0  0  0  0  0  0  0  0
   27.0160   18.6980   12.2070 O   0  0  0  0  0  0  0  0  0  0  0  0
   25.0490   17.9530   13.2210 N   0  0  0  0  0  0  0  0  0  0  0  0
   25.2430   18.5290   14.5420 C   0  0  1  0  0  0  0  0  0  0  0  0
   26.3190   17.8400   15.3770 C   0  0  0  0  0  0  0  0  0  0  0  0
   26.3980   18.5070   16.7410 C   0  0  0  0  0  0  0  0  0  0  0  0
   26.6580   19.9910   16.6140 C   0  0  0  0  0  0  0  0  0  0  0  0
   27.2280   20.6340   17.4900 O   0  0  0  0  0  0  0  0  0  0  0  0
   26.1720   20.6060   15.4870 N   0  0  0  0  0  0  0  0  0  0  0  0
   25.5590   20.0220   14.4010 C   0  0  0  0  0  0  0  0  0  0  0  0
   25.2410   20.7000   13.4250 O   0  0  0  0  0  0  0  0  0  0  0  0
   24.0590   17.0690   12.8870 C   0  0  0  0  0  0  0  0  0  0  0  0
   23.1260   16.6750   13.5600 O   0  0  0  0  0  0  0  0  0  0  0  0
   25.0820   15.5980    6.5860 N   0  0  0  0  0  0  0  0  0  0  0  0
   25.8940   15.4150    5.5640 C   0  0  0  0  0  0  0  0  0  0  0  0
   25.5150   11.8260    4.0230 C   0  0  0  0  0  0  0  0  0  0  0  0
   26.0270   11.1170    5.0100 N   0  0  0  0  0  0  0  0  0  0  0  0
   24.7464    9.1845    8.6779 H   0  0  0  0  0  0  0  0  0  0  0  0
   23.8606    9.4192    7.1330 H   0  0  0  0  0  0  0  0  0  0  0  0
   25.4708    8.6230    7.1330 H   0  0  0  0  0  0  0  0  0  0  0  0
   25.1688   11.4318    8.2185 H   0  0  0  0  0  0  0  0  0  0  0  0
   26.6109   10.6032    7.4859 H   0  0  0  0  0  0  0  0  0  0  0  0
   23.4059   12.6298    6.4133 H   0  0  0  0  0  0  0  0  0  0  0  0
   26.4784   14.6660    2.2980 H   0  0  0  0  0  0  0  0  0  0  0  0
   28.8930   14.8265    3.1085 H   0  0  0  0  0  0  0  0  0  0  0  0
   29.3338   15.3616    5.4682 H   0  0  0  0  0  0  0  0  0  0  0  0
   28.1049   15.9294    7.9450 H   0  0  0  0  0  0  0  0  0  0  0  0
   23.6594   14.8454    8.7418 H   0  0  0  0  0  0  0  0  0  0  0  0
   22.7043   15.2933   11.0210 H   0  0  0  0  0  0  0  0  0  0  0  0
   27.0140   17.4846    9.5770 H   0  0  0  0  0  0  0  0  0  0  0  0
   24.3020   18.3758   15.0906 H   0  0  0  0  0  0  0  0  0  0  0  0
   26.0636   16.7773   15.5015 H   0  0  0  0  0  0  0  0  0  0  0  0
   27.2908   17.9234   14.8684 H   0  0  0  0  0  0  0  0  0  0  0  0
   25.4457   18.3543   17.2700 H   0  0  0  0  0  0  0  0  0  0  0  0
   27.2311   18.0557   17.2998 H   0  0  0  0  0  0  0  0  0  0  0  0
   26.2790   21.6297   15.4491 H   0  0  0  0  0  0  0  0  0  0  0  0
   25.9428   11.8929    3.0118 H   0  0  0  0  0  0  0  0  0  0  0  0
  1  2  1  0
  2  3  1  0
  3  4  2  0
  4  5  1  0
  5  6  1  0
  6  7  2  0
  6  8  2  0
  6  9  1  0
  9 10  1  0
 10 11  2  0
 11 12  1  0
 12 13  2  0
 13 14  1  0
 14 15  1  0
 15 16  2  0
 16 17  1  0
 17 18  2  0
 18 19  1  0
 19 20  2  0
 20 21  1  0
 21 22  2  0
 21 23  1  0
 23 24  2  0
 23 25  1  0
 25 26  1  0
 26 27  1  0
 27 28  1  0
 28 29  1  0
 29 30  2  0
 29 31  1  0
 31 32  1  0
 32 33  2  0
 25 34  1  0
 34 35  2  0
 16 36  1  0
 36 37  2  0
  5 38  1  0
 38 39  2  0
 39  3  1  0
 37 10  1  0
 37 14  1  0
 22 17  1  0
 32 26  1  0
 34 20  1  0
  1 40  1  0
  1 41  1  0
  1 42  1  0
  2 43  1  0
  2 44  1  0
  4 45  1  0
 11 46  1  0
 12 47  1  0
 13 48  1  0
 15 49  1  0
 18 50  1  0
 19 51  1  0
 22 52  1  0
 26 53  1  1
 27 54  1  0
 27 55  1  0
 28 56  1  0
 28 57  1  0
 31 58  1  0
 38 59  1  0
M  END
>  <meeko>  (68) 
{"is_sidechain": [true], "free_energy": -14.56, "intermolecular_energy": 0.0, "internal_energy": -14.56, "cluster_size": 10, "cluster_id": 1, "rank_in_cluster": 1}

>  <_RMSD_MCS_to_ref>  (68) 
0.4452018268905299

$$$$
ligand
     RDKit          3D

 60 65  0  0  0  0  0  0  0  0999 V2000
   24.8710    9.6160    7.7820 C   0  0  0  0  0  0  0  0  0  0  0  0
   25.4240   10.9650    7.3490 C   0  0  0  0  0  0  0  0  0  0  0  0
   26.9040   11.0370    7.4850 C   0  0  0  0  0  0  0  0  0  0  0  0
   27.6630   11.8550    8.2990 C   0  0  0  0  0  0  0  0  0  0  0  0
   28.9510   11.4810    8.0420 N   0  0  0  0  0  0  0  0  0  0  0  0
   30.3330   12.2850    8.5650 S   0  0  0  0  0  6  0  0  0  0  0  0
   31.4470   11.5190    8.0300 O   0  0  0  0  0  0  0  0  0  0  0  0
   30.1550   12.4550    9.9940 O   0  0  0  0  0  0  0  0  0  0  0  0
   30.3060   13.7570    7.8520 O   0  0  0  0  0  0  0  0  0  0  0  0
   29.2200   14.2980    7.2930 C   0  0  0  0  0  0  0  0  0  0  0  0
   28.9320   14.4830    5.9580 C   0  0  0  0  0  0  0  0  0  0  0  0
   27.6600   15.1080    5.8590 C   0  0  0  0  0  0  0  0  0  0  0  0
   26.8570   15.5150    4.7870 C   0  0  0  0  0  0  0  0  0  0  0  0
   25.6430   16.0960    5.1100 C   0  0  0  0  0  0  0  0  0  0  0  0
   25.1970   16.3020    6.3680 N   0  0  0  0  0  0  0  0  0  0  0  0
   25.9750   15.9420    7.4270 C   0  0  0  0  0  0  0  0  0  0  0  0
   25.4510   16.2010    8.7710 C   0  0  0  0  0  0  0  0  0  0  0  0
   24.1720   15.7350    9.1720 C   0  0  0  0  0  0  0  0  0  0  0  0
   23.6650   15.9870   10.4510 C   0  0  0  0  0  0  0  0  0  0  0  0
   24.4660   16.6950   11.3210 C   0  0  0  0  0  0  0  0  0  0  0  0
   25.7310   17.1550   10.9720 C   0  0  0  0  0  0  0  0  0  0  0  0
   26.2360   16.9120    9.7050 C   0  0  0  0  0  0  0  0  0  0  0  0
   26.3460   17.8860   12.1170 C   0  0  0  0  0  0  0  0  0  0  0  0
   25.3520   17.7200   13.1700 N   0  0  0  0  0  0  0  0  0  0  0  0
   25.3730   18.4670   14.4210 C   0  0  1  0  0  0  0  0  0  0  0  0
   26.3000   17.8390   15.4580 C   0  0  0  0  0  0  0  0  0  0  0  0
   26.2000   18.6170   16.7620 C   0  0  0  0  0  0  0  0  0  0  0  0
   26.5010   20.0820   16.5480 C   0  0  0  0  0  0  0  0  0  0  0  0
   27.0890   20.7610   17.3840 O   0  0  0  0  0  0  0  0  0  0  0  0
   26.0660   20.6320   15.3690 N   0  0  0  0  0  0  0  0  0  0  0  0
   25.7760   19.9370   14.2160 C   0  0  0  0  0  0  0  0  0  0  0  0
   25.8530   20.4920   13.1220 O   0  0  0  0  0  0  0  0  0  0  0  0
   24.2030   17.0950   12.7080 C   0  0  0  0  0  0  0  0  0  0  0  0
   23.1630   16.9000   13.3070 O   0  0  0  0  0  0  0  0  0  0  0  0
   27.2030   15.3230    7.1600 C   0  0  0  0  0  0  0  0  0  0  0  0
   28.1590   14.8050    8.0060 N   0  0  0  0  0  0  0  0  0  0  0  0
   28.9530   10.5430    7.0610 C   0  0  0  0  0  0  0  0  0  0  0  0
   27.7220   10.2320    6.7170 N   0  0  0  0  0  0  0  0  0  0  0  0
   24.8497    9.5640    8.8806 H   0  0  0  0  0  0  0  0  0  0  0  0
   23.8507    9.4948    7.3893 H   0  0  0  0  0  0  0  0  0  0  0  0
   25.5127    8.8135    7.3893 H   0  0  0  0  0  0  0  0  0  0  0  0
   25.1566   11.1357    6.2957 H   0  0  0  0  0  0  0  0  0  0  0  0
   24.9875   11.7340    8.0032 H   0  0  0  0  0  0  0  0  0  0  0  0
   27.3106   12.6304    8.9951 H   0  0  0  0  0  0  0  0  0  0  0  0
   29.5764   14.1960    5.1140 H   0  0  0  0  0  0  0  0  0  0  0  0
   27.1743   15.3801    3.7424 H   0  0  0  0  0  0  0  0  0  0  0  0
   24.9935   16.4134    4.2809 H   0  0  0  0  0  0  0  0  0  0  0  0
   23.5633   15.1605    8.4582 H   0  0  0  0  0  0  0  0  0  0  0  0
   22.6671   15.6343   10.7505 H   0  0  0  0  0  0  0  0  0  0  0  0
   27.2390   17.2695    9.4292 H   0  0  0  0  0  0  0  0  0  0  0  0
   27.3080   17.4367   12.4045 H   0  0  0  0  0  0  0  0  0  0  0  0
   26.5745   18.9383   11.8926 H   0  0  0  0  0  0  0  0  0  0  0  0
   24.3404   18.4287   14.7981 H   0  0  0  0  0  0  0  0  0  0  0  0
   26.0033   16.7939   15.6305 H   0  0  0  0  0  0  0  0  0  0  0  0
   27.3364   17.8691   15.0906 H   0  0  0  0  0  0  0  0  0  0  0  0
   25.1810   18.5149   17.1636 H   0  0  0  0  0  0  0  0  0  0  0  0
   26.9378   18.2092   17.4686 H   0  0  0  0  0  0  0  0  0  0  0  0
   25.9457   21.6546   15.3439 H   0  0  0  0  0  0  0  0  0  0  0  0
   28.0886   14.7984    9.0336 H   0  0  0  0  0  0  0  0  0  0  0  0
   29.8580   10.1040    6.6156 H   0  0  0  0  0  0  0  0  0  0  0  0
  1  2  1  0
  2  3  1  0
  3  4  2  0
  4  5  1  0
  5  6  1  0
  6  7  2  0
  6  8  2  0
  6  9  1  0
  9 10  1  0
 10 11  2  0
 11 12  1  0
 12 13  2  0
 13 14  1  0
 14 15  2  0
 15 16  1  0
 16 17  1  0
 17 18  2  0
 18 19  1  0
 19 20  2  0
 20 21  1  0
 21 22  2  0
 21 23  1  0
 23 24  1  0
 24 25  1  0
 25 26  1  0
 26 27  1  0
 27 28  1  0
 28 29  2  0
 28 30  1  0
 30 31  1  0
 31 32  2  0
 24 33  1  0
 33 34  2  0
 16 35  2  0
 35 36  1  0
  5 37  1  0
 37 38  2  0
 38  3  1  0
 36 10  1  0
 35 12  1  0
 22 17  1  0
 31 25  1  0
 33 20  1  0
  1 39  1  0
  1 40  1  0
  1 41  1  0
  2 42  1  0
  2 43  1  0
  4 44  1  0
 11 45  1  0
 13 46  1  0
 14 47  1  0
 18 48  1  0
 19 49  1  0
 22 50  1  0
 23 51  1  0
 23 52  1  0
 25 53  1  1
 26 54  1  0
 26 55  1  0
 27 56  1  0
 27 57  1  0
 30 58  1  0
 36 59  1  0
 37 60  1  0
M  END
>  <meeko>  (69) 
{"is_sidechain": [true], "free_energy": -14.56, "intermolecular_energy": 0.0, "internal_energy": -14.56, "cluster_size": 19, "cluster_id": 1, "rank_in_cluster": 1}

>  <_RMSD_MCS_to_ref>  (69) 
0.6807794681176328

$$$$
ligand
     RDKit          3D

 61 66  0  0  0  0  0  0  0  0999 V2000
   24.8540    9.4020    7.6050 C   0  0  0  0  0  0  0  0  0  0  0  0
   25.5230   10.7550    7.4270 C   0  0  0  0  0  0  0  0  0  0  0  0
   26.9980   10.6370    7.2660 C   0  0  0  0  0  0  0  0  0  0  0  0
   27.8020   11.1130    6.2490 C   0  0  0  0  0  0  0  0  0  0  0  0
   29.0650   10.7510    6.6240 N   0  0  0  0  0  0  0  0  0  0  0  0
   30.4410   10.8450    5.6570 S   0  0  0  0  0  6  0  0  0  0  0  0
   31.5200   10.3520    6.4910 O   0  0  0  0  0  0  0  0  0  0  0  0
   30.0750   10.1820    4.4200 O   0  0  0  0  0  0  0  0  0  0  0  0
   30.6810   12.4290    5.3590 O   0  0  0  0  0  0  0  0  0  0  0  0
   29.6410   13.3100    5.2410 C   0  0  0  0  0  0  0  0  0  0  0  0
   29.1430   13.8470    4.0660 C   0  0  0  0  0  0  0  0  0  0  0  0
   28.1070   14.7170    4.0240 N   0  0  0  0  0  0  0  0  0  0  0  0
   27.5410   15.0720    5.1960 C   0  0  0  0  0  0  0  0  0  0  0  0
   26.4820   15.9600    5.2120 C   0  0  0  0  0  0  0  0  0  0  0  0
   25.8810   16.3370    6.4140 C   0  0  0  0  0  0  0  0  0  0  0  0
   26.3620   15.8050    7.6060 C   0  0  0  0  0  0  0  0  0  0  0  0
   25.7900   16.1400    8.9270 C   0  0  0  0  0  0  0  0  0  0  0  0
   24.5730   15.5400    9.3500 C   0  0  0  0  0  0  0  0  0  0  0  0
   23.9970   15.8190   10.5930 C   0  0  0  0  0  0  0  0  0  0  0  0
   24.6540   16.7210   11.4030 C   0  0  0  0  0  0  0  0  0  0  0  0
   25.8420   17.3390   11.0260 C   0  0  0  0  0  0  0  0  0  0  0  0
   26.4200   17.0590    9.7960 C   0  0  0  0  0  0  0  0  0  0  0  0
   26.3090   18.2450   12.1140 C   0  0  0  0  0  0  0  0  0  0  0  0
   25.2280   18.1650   13.0870 N   0  0  0  0  0  0  0  0  0  0  0  0
   25.3690   18.7310   14.4250 C   0  0  1  0  0  0  0  0  0  0  0  0
   26.4450   18.0510   15.2720 C   0  0  0  0  0  0  0  0  0  0  0  0
   26.4640   18.6740   16.6580 C   0  0  0  0  0  0  0  0  0  0  0  0
   26.6840   20.1680   16.5850 C   0  0  0  0  0  0  0  0  0  0  0  0
   27.1370   20.8090   17.5290 O   0  0  0  0  0  0  0  0  0  0  0  0
   26.2740   20.7960   15.4360 N   0  0  0  0  0  0  0  0  0  0  0  0
   25.6070   20.2480   14.3650 C   0  0  0  0  0  0  0  0  0  0  0  0
   25.1470   20.9710   13.4820 O   0  0  0  0  0  0  0  0  0  0  0  0
   24.2920   17.2020   12.7410 C   0  0  0  0  0  0  0  0  0  0  0  0
   23.3530   16.7910   13.3920 O   0  0  0  0  0  0  0  0  0  0  0  0
   27.4060   14.9390    7.6180 N   0  0  0  0  0  0  0  0  0  0  0  0
   27.9700   14.5870    6.4450 C   0  0  0  0  0  0  0  0  0  0  0  0
   29.0330   13.6980    6.4350 C   0  0  0  0  0  0  0  0  0  0  0  0
   28.9980   10.0220    7.7670 C   0  0  0  0  0  0  0  0  0  0  0  0
   27.7550    9.9570    8.1990 N   0  0  0  0  0  0  0  0  0  0  0  0
   24.7464    9.1845    8.6779 H   0  0  0  0  0  0  0  0  0  0  0  0
   23.8606    9.4192    7.1330 H   0  0  0  0  0  0  0  0  0  0  0  0
   25.4708    8.6230    7.1330 H   0  0  0  0  0  0  0  0  0  0  0  0
   25.1069   11.2408    6.5321 H   0  0  0  0  0  0  0  0  0  0  0  0
   25.3289   11.3490    8.3323 H   0  0  0  0  0  0  0  0  0  0  0  0
   27.4957   11.6586    5.3443 H   0  0  0  0  0  0  0  0  0  0  0  0
   29.6140   13.5511    3.1170 H   0  0  0  0  0  0  0  0  0  0  0  0
   26.1078   16.3752    4.2646 H   0  0  0  0  0  0  0  0  0  0  0  0
   25.0389   17.0448    6.4187 H   0  0  0  0  0  0  0  0  0  0  0  0
   24.0672   14.8323    8.6767 H   0  0  0  0  0  0  0  0  0  0  0  0
   23.0596   15.3394   10.9113 H   0  0  0  0  0  0  0  0  0  0  0  0
   27.3599   17.5479    9.5002 H   0  0  0  0  0  0  0  0  0  0  0  0
   27.2570   17.8907   12.5450 H   0  0  0  0  0  0  0  0  0  0  0  0
   26.5105   19.2703   11.7704 H   0  0  0  0  0  0  0  0  0  0  0  0
   24.4112   18.5367   14.9299 H   0  0  0  0  0  0  0  0  0  0  0  0
   26.2223   16.9770   15.3553 H   0  0  0  0  0  0  0  0  0  0  0  0
   27.4273   18.1847   14.7953 H   0  0  0  0  0  0  0  0  0  0  0  0
   25.5014   18.4772   17.1527 H   0  0  0  0  0  0  0  0  0  0  0  0
   27.2925   18.2282   17.2280 H   0  0  0  0  0  0  0  0  0  0  0  0
   26.4923   21.8002   15.3670 H   0  0  0  0  0  0  0  0  0  0  0  0
   29.4044   13.2905    7.3868 H   0  0  0  0  0  0  0  0  0  0  0  0
   29.8600    9.5517    8.2628 H   0  0  0  0  0  0  0  0  0  0  0  0
  1  2  1  0
  2  3  1  0
  3  4  2  0
  4  5  1  0
  5  6  1  0
  6  7  2  0
  6  8  2  0
  6  9  1  0
  9 10  1  0
 10 11  2  0
 11 12  1  0
 12 13  2  0
 13 14  1  0
 14 15  2  0
 15 16  1  0
 16 17  1  0
 17 18  2  0
 18 19  1  0
 19 20  2  0
 20 21  1  0
 21 22  2  0
 21 23  1  0
 23 24  1  0
 24 25  1  0
 25 26  1  0
 26 27  1  0
 27 28  1  0
 28 29  2  0
 28 30  1  0
 30 31  1  0
 31 32  2  0
 24 33  1  0
 33 34  2  0
 16 35  2  0
 35 36  1  0
 36 37  2  0
  5 38  1  0
 38 39  2  0
 39  3  1  0
 37 10  1  0
 36 13  1  0
 22 17  1  0
 31 25  1  0
 33 20  1  0
  1 40  1  0
  1 41  1  0
  1 42  1  0
  2 43  1  0
  2 44  1  0
  4 45  1  0
 11 46  1  0
 14 47  1  0
 15 48  1  0
 18 49  1  0
 19 50  1  0
 22 51  1  0
 23 52  1  0
 23 53  1  0
 25 54  1  1
 26 55  1  0
 26 56  1  0
 27 57  1  0
 27 58  1  0
 30 59  1  0
 37 60  1  0
 38 61  1  0
M  END
>  <meeko>  (70) 
{"is_sidechain": [true], "free_energy": -14.55, "intermolecular_energy": 0.0, "internal_energy": -14.55, "cluster_size": 20, "cluster_id": 1, "rank_in_cluster": 1}

>  <_RMSD_MCS_to_ref>  (70) 
0.5865391906959168

$$$$
ligand
     RDKit          3D

 60 65  0  0  0  0  0  0  0  0999 V2000
   24.8710    9.6170    7.7820 C   0  0  0  0  0  0  0  0  0  0  0  0
   25.4240   10.9640    7.3490 C   0  0  0  0  0  0  0  0  0  0  0  0
   26.8660   11.1240    7.6830 C   0  0  0  0  0  0  0  0  0  0  0  0
   27.4710   12.0840    8.4710 C   0  0  0  0  0  0  0  0  0  0  0  0
   28.8020   11.7960    8.3880 N   0  0  0  0  0  0  0  0  0  0  0  0
   30.0540   12.5850    9.1950 S   0  0  0  0  0  6  0  0  0  0  0  0
   29.5600   12.7450   10.5490 O   0  0  0  0  0  0  0  0  0  0  0  0
   31.2450   11.7970    8.9250 O   0  0  0  0  0  0  0  0  0  0  0  0
   30.2410   14.0640    8.5480 O   0  0  0  0  0  0  0  0  0  0  0  0
   29.3610   14.4220    7.5740 C   0  0  0  0  0  0  0  0  0  0  0  0
   29.6790   14.3220    6.2370 C   0  0  0  0  0  0  0  0  0  0  0  0
   28.8280   14.7360    5.2730 N   0  0  0  0  0  0  0  0  0  0  0  0
   27.6640   15.2850    5.6750 C   0  0  0  0  0  0  0  0  0  0  0  0
   26.7970   15.7440    4.7030 C   0  0  0  0  0  0  0  0  0  0  0  0
   25.6100   16.3300    5.0810 C   0  0  0  0  0  0  0  0  0  0  0  0
   25.2430   16.4770    6.3630 N   0  0  0  0  0  0  0  0  0  0  0  0
   26.0920   16.0140    7.3270 C   0  0  0  0  0  0  0  0  0  0  0  0
   25.5940   16.2220    8.7070 C   0  0  0  0  0  0  0  0  0  0  0  0
   24.3500   15.6680    9.1140 C   0  0  0  0  0  0  0  0  0  0  0  0
   23.8440   15.8510   10.4060 C   0  0  0  0  0  0  0  0  0  0  0  0
   24.6070   16.5900   11.2860 C   0  0  0  0  0  0  0  0  0  0  0  0
   25.8340   17.1370   10.9310 C   0  0  0  0  0  0  0  0  0  0  0  0
   26.3370   16.9550    9.6530 C   0  0  0  0  0  0  0  0  0  0  0  0
   26.4150   17.8930   12.0780 C   0  0  0  0  0  0  0  0  0  0  0  0
   25.4460   17.6450   13.1400 N   0  0  0  0  0  0  0  0  0  0  0  0
   25.4360   18.3830   14.3950 C   0  0  1  0  0  0  0  0  0  0  0  0
   26.3370   17.7480   15.4510 C   0  0  0  0  0  0  0  0  0  0  0  0
   26.2060   18.5170   16.7560 C   0  0  0  0  0  0  0  0  0  0  0  0
   26.5150   19.9830   16.5620 C   0  0  0  0  0  0  0  0  0  0  0  0
   27.0610   20.6590   17.4270 O   0  0  0  0  0  0  0  0  0  0  0  0
   26.1270   20.5390   15.3680 N   0  0  0  0  0  0  0  0  0  0  0  0
   25.8450   19.8550   14.2070 C   0  0  0  0  0  0  0  0  0  0  0  0
   25.9280   20.4240   13.1210 O   0  0  0  0  0  0  0  0  0  0  0  0
   24.3350   16.9510   12.6820 C   0  0  0  0  0  0  0  0  0  0  0  0
   23.3180   16.6800   13.2910 O   0  0  0  0  0  0  0  0  0  0  0  0
   27.3300   15.4050    7.0450 C   0  0  0  0  0  0  0  0  0  0  0  0
   28.2000   14.9520    7.9980 N   0  0  0  0  0  0  0  0  0  0  0  0
   28.9720   10.6770    7.6380 C   0  0  0  0  0  0  0  0  0  0  0  0
   27.8110   10.2420    7.1880 N   0  0  0  0  0  0  0  0  0  0  0  0
   24.8498    9.5653    8.8806 H   0  0  0  0  0  0  0  0  0  0  0  0
   23.8505    9.4962    7.3895 H   0  0  0  0  0  0  0  0  0  0  0  0
   25.5122    8.8140    7.3895 H   0  0  0  0  0  0  0  0  0  0  0  0
   25.3014   11.0619    6.2602 H   0  0  0  0  0  0  0  0  0  0  0  0
   24.8676   11.7429    7.8911 H   0  0  0  0  0  0  0  0  0  0  0  0
   26.9894   12.8955    9.0364 H   0  0  0  0  0  0  0  0  0  0  0  0
   30.6502   13.8943    5.9474 H   0  0  0  0  0  0  0  0  0  0  0  0
   27.0522   15.6424    3.6378 H   0  0  0  0  0  0  0  0  0  0  0  0
   24.9313   16.6944    4.2958 H   0  0  0  0  0  0  0  0  0  0  0  0
   23.7673   15.0775    8.3917 H   0  0  0  0  0  0  0  0  0  0  0  0
   22.8767   15.4227   10.7076 H   0  0  0  0  0  0  0  0  0  0  0  0
   27.3130   17.3813    9.3780 H   0  0  0  0  0  0  0  0  0  0  0  0
   27.4086   17.5055   12.3475 H   0  0  0  0  0  0  0  0  0  0  0  0
   26.5712   18.9611   11.8663 H   0  0  0  0  0  0  0  0  0  0  0  0
   24.3949   18.3427   14.7477 H   0  0  0  0  0  0  0  0  0  0  0  0
   26.0355   16.7021   15.6096 H   0  0  0  0  0  0  0  0  0  0  0  0
   27.3821   17.7799   15.1093 H   0  0  0  0  0  0  0  0  0  0  0  0
   25.1770   18.4141   17.1309 H   0  0  0  0  0  0  0  0  0  0  0  0
   26.9259   18.1027   17.4772 H   0  0  0  0  0  0  0  0  0  0  0  0
   26.0386   21.5648   15.3381 H   0  0  0  0  0  0  0  0  0  0  0  0
   29.9421   10.2001    7.4342 H   0  0  0  0  0  0  0  0  0  0  0  0
  1  2  1  0
  2  3  1  0
  3  4  2  0
  4  5  1  0
  5  6  1  0
  6  7  2  0
  6  8  2  0
  6  9  1  0
  9 10  1  0
 10 11  2  0
 11 12  1  0
 12 13  2  0
 13 14  1  0
 14 15  2  0
 15 16  1  0
 16 17  2  0
 17 18  1  0
 18 19  2  0
 19 20  1  0
 20 21  2  0
 21 22  1  0
 22 23  2  0
 22 24  1  0
 24 25  1  0
 25 26  1  0
 26 27  1  0
 27 28  1  0
 28 29  1  0
 29 30  2  0
 29 31  1  0
 31 32  1  0
 32 33  2  0
 25 34  1  0
 34 35  2  0
 17 36  1  0
 36 37  2  0
  5 38  1  0
 38 39  2  0
 39  3  1  0
 37 10  1  0
 36 13  1  0
 23 18  1  0
 32 26  1  0
 34 21  1  0
  1 40  1  0
  1 41  1  0
  1 42  1  0
  2 43  1  0
  2 44  1  0
  4 45  1  0
 11 46  1  0
 14 47  1  0
 15 48  1  0
 19 49  1  0
 20 50  1  0
 23 51  1  0
 24 52  1  0
 24 53  1  0
 26 54  1  1
 27 55  1  0
 27 56  1  0
 28 57  1  0
 28 58  1  0
 31 59  1  0
 38 60  1  0
M  END
>  <meeko>  (71) 
{"is_sidechain": [true], "free_energy": -14.55, "intermolecular_energy": 0.0, "internal_energy": -14.55, "cluster_size": 18, "cluster_id": 1, "rank_in_cluster": 1}

>  <_RMSD_MCS_to_ref>  (71) 
0.7180768907663247

$$$$
ligand
     RDKit          3D

 62 67  0  0  0  0  0  0  0  0999 V2000
   24.8540    9.4020    7.6050 C   0  0  0  0  0  0  0  0  0  0  0  0
   25.5230   10.7550    7.4270 C   0  0  0  0  0  0  0  0  0  0  0  0
   24.7990   11.6160    6.4520 C   0  0  0  0  0  0  0  0  0  0  0  0
   25.2620   12.1730    5.2770 C   0  0  0  0  0  0  0  0  0  0  0  0
   24.1870   12.8570    4.7840 N   0  0  0  0  0  0  0  0  0  0  0  0
   24.2200   13.9700    3.5140 S   0  0  0  0  0  6  0  0  0  0  0  0
   25.0930   13.3750    2.5170 O   0  0  0  0  0  0  0  0  0  0  0  0
   22.8230   14.2290    3.2250 O   0  0  0  0  0  0  0  0  0  0  0  0
   24.8860   15.3560    4.0820 O   0  0  0  0  0  0  0  0  0  0  0  0
   25.6340   15.3130    5.2350 C   0  0  0  0  0  0  0  0  0  0  0  0
   25.0320   15.6250    6.4500 C   0  0  0  0  0  0  0  0  0  0  0  0
   25.8080   15.6040    7.6000 C   0  0  0  0  0  0  0  0  0  0  0  0
   25.2770   15.9490    8.9370 C   0  0  0  0  0  0  0  0  0  0  0  0
   24.0580   15.4010    9.4210 C   0  0  0  0  0  0  0  0  0  0  0  0
   23.5530   15.7220   10.6870 C   0  0  0  0  0  0  0  0  0  0  0  0
   24.2820   16.6050   11.4550 C   0  0  0  0  0  0  0  0  0  0  0  0
   25.4750   17.1700   11.0180 C   0  0  0  0  0  0  0  0  0  0  0  0
   25.9800   16.8520    9.7680 C   0  0  0  0  0  0  0  0  0  0  0  0
   26.0330   18.0630   12.0720 C   0  0  0  0  0  0  0  0  0  0  0  0
   24.9930   18.0420   13.0930 N   0  0  0  0  0  0  0  0  0  0  0  0
   25.2170   18.6170   14.4150 C   0  0  1  0  0  0  0  0  0  0  0  0
   26.2790   17.8850   15.2340 C   0  0  0  0  0  0  0  0  0  0  0  0
   26.3860   18.5260   16.6090 C   0  0  0  0  0  0  0  0  0  0  0  0
   26.6960   20.0010   16.5030 C   0  0  0  0  0  0  0  0  0  0  0  0
   27.2250   20.6250   17.4180 O   0  0  0  0  0  0  0  0  0  0  0  0
   26.2790   20.6380   15.3620 N   0  0  0  0  0  0  0  0  0  0  0  0
   25.5460   20.1160   14.3210 C   0  0  0  0  0  0  0  0  0  0  0  0
   25.1040   20.8540   13.4400 O   0  0  0  0  0  0  0  0  0  0  0  0
   24.0010   17.1170   12.8010 C   0  0  0  0  0  0  0  0  0  0  0  0
   23.0720   16.7560   13.4970 O   0  0  0  0  0  0  0  0  0  0  0  0
   27.1190   15.2570    7.5620 N   0  0  0  0  0  0  0  0  0  0  0  0
   27.6880   14.9180    6.3920 C   0  0  0  0  0  0  0  0  0  0  0  0
   29.0290   14.5580    6.3780 C   0  0  0  0  0  0  0  0  0  0  0  0
   29.6830   14.1920    5.1980 C   0  0  0  0  0  0  0  0  0  0  0  0
   28.9830   14.1770    3.9990 C   0  0  0  0  0  0  0  0  0  0  0  0
   27.6360   14.5310    3.9860 C   0  0  0  0  0  0  0  0  0  0  0  0
   26.9800   14.9150    5.1780 C   0  0  0  0  0  0  0  0  0  0  0  0
   23.1530   12.7460    5.6550 C   0  0  0  0  0  0  0  0  0  0  0  0
   23.4870   11.9820    6.6750 N   0  0  0  0  0  0  0  0  0  0  0  0
   24.7464    9.1845    8.6779 H   0  0  0  0  0  0  0  0  0  0  0  0
   23.8606    9.4192    7.1330 H   0  0  0  0  0  0  0  0  0  0  0  0
   25.4708    8.6230    7.1330 H   0  0  0  0  0  0  0  0  0  0  0  0
   25.5505   11.2674    8.4000 H   0  0  0  0  0  0  0  0  0  0  0  0
   26.5369   10.5819    7.0371 H   0  0  0  0  0  0  0  0  0  0  0  0
   26.2668   12.0860    4.8379 H   0  0  0  0  0  0  0  0  0  0  0  0
   23.9637   15.8828    6.4978 H   0  0  0  0  0  0  0  0  0  0  0  0
   23.4949   14.7044    8.7824 H   0  0  0  0  0  0  0  0  0  0  0  0
   22.6118   15.2869   11.0543 H   0  0  0  0  0  0  0  0  0  0  0  0
   26.9237   17.2998    9.4232 H   0  0  0  0  0  0  0  0  0  0  0  0
   26.9821   17.6688   12.4643 H   0  0  0  0  0  0  0  0  0  0  0  0
   26.2673   19.0743   11.7082 H   0  0  0  0  0  0  0  0  0  0  0  0
   24.2681   18.4893   14.9566 H   0  0  0  0  0  0  0  0  0  0  0  0
   25.9947   16.8280   15.3428 H   0  0  0  0  0  0  0  0  0  0  0  0
   27.2497   17.9514   14.7208 H   0  0  0  0  0  0  0  0  0  0  0  0
   25.4311   18.3975   17.1398 H   0  0  0  0  0  0  0  0  0  0  0  0
   27.2044   18.0372   17.1578 H   0  0  0  0  0  0  0  0  0  0  0  0
   26.5475   21.6285   15.2736 H   0  0  0  0  0  0  0  0  0  0  0  0
   29.5928   14.5609    7.3225 H   0  0  0  0  0  0  0  0  0  0  0  0
   30.7479   13.9170    5.2193 H   0  0  0  0  0  0  0  0  0  0  0  0
   29.4887   13.8876    3.0660 H   0  0  0  0  0  0  0  0  0  0  0  0
   27.0770   14.5116    3.0388 H   0  0  0  0  0  0  0  0  0  0  0  0
   22.1720   13.2270    5.5274 H   0  0  0  0  0  0  0  0  0  0  0  0
  1  2  1  0
  2  3  1  0
  3  4  2  0
  4  5  1  0
  5  6  1  0
  6  7  2  0
  6  8  2  0
  6  9  1  0
  9 10  1  0
 10 11  2  0
 11 12  1  0
 12 13  1  0
 13 14  2  0
 14 15  1  0
 15 16  2  0
 16 17  1  0
 17 18  2  0
 17 19  1  0
 19 20  1  0
 20 21  1  0
 21 22  1  0
 22 23  1  0
 23 24  1  0
 24 25  2  0
 24 26  1  0
 26 27  1  0
 27 28  2  0
 20 29  1  0
 29 30  2  0
 12 31  2  0
 31 32  1  0
 32 33  2  0
 33 34  1  0
 34 35  2  0
 35 36  1  0
 36 37  2  0
  5 38  1  0
 38 39  2  0
 39  3  1  0
 37 10  1  0
 18 13  1  0
 27 21  1  0
 37 32  1  0
 29 16  1  0
  1 40  1  0
  1 41  1  0
  1 42  1  0
  2 43  1  0
  2 44  1  0
  4 45  1  0
 11 46  1  0
 14 47  1  0
 15 48  1  0
 18 49  1  0
 19 50  1  0
 19 51  1  0
 21 52  1  1
 22 53  1  0
 22 54  1  0
 23 55  1  0
 23 56  1  0
 26 57  1  0
 33 58  1  0
 34 59  1  0
 35 60  1  0
 36 61  1  0
 38 62  1  0
M  END
>  <meeko>  (72) 
{"is_sidechain": [true], "free_energy": -14.54, "intermolecular_energy": 0.0, "internal_energy": -14.54, "cluster_size": 19, "cluster_id": 1, "rank_in_cluster": 1}

>  <_RMSD_MCS_to_ref>  (72) 
0.46406381266181634

$$$$
ligand
     RDKit          3D

 59 64  0  0  0  0  0  0  0  0999 V2000
   24.8540    9.4020    7.6050 C   0  0  0  0  0  0  0  0  0  0  0  0
   25.5230   10.7550    7.4270 C   0  0  0  0  0  0  0  0  0  0  0  0
   25.1360   11.4100    6.1480 C   0  0  0  0  0  0  0  0  0  0  0  0
   24.4260   12.5790    5.9510 C   0  0  0  0  0  0  0  0  0  0  0  0
   24.3560   12.7000    4.5930 N   0  0  0  0  0  0  0  0  0  0  0  0
   23.6600   13.9890    3.7560 S   0  0  0  0  0  6  0  0  0  0  0  0
   24.1740   13.9110    2.4000 O   0  0  0  0  0  0  0  0  0  0  0  0
   22.2390   13.8220    4.0090 O   0  0  0  0  0  0  0  0  0  0  0  0
   24.1130   15.3850    4.4390 O   0  0  0  0  0  0  0  0  0  0  0  0
   25.1030   15.3720    5.3830 C   0  0  0  0  0  0  0  0  0  0  0  0
   24.6860   15.6680    6.6260 N   0  0  0  0  0  0  0  0  0  0  0  0
   25.5800   15.6050    7.6510 C   0  0  0  0  0  0  0  0  0  0  0  0
   25.0950   15.9440    8.9920 C   0  0  0  0  0  0  0  0  0  0  0  0
   23.8860   15.4050    9.5060 C   0  0  0  0  0  0  0  0  0  0  0  0
   23.4190   15.7290   10.7840 C   0  0  0  0  0  0  0  0  0  0  0  0
   24.1750   16.6090   11.5300 C   0  0  0  0  0  0  0  0  0  0  0  0
   25.3560   17.1690   11.0590 C   0  0  0  0  0  0  0  0  0  0  0  0
   25.8250   16.8470    9.7940 C   0  0  0  0  0  0  0  0  0  0  0  0
   25.9470   18.0620   12.0960 C   0  0  0  0  0  0  0  0  0  0  0  0
   24.9370   18.0440   13.1460 N   0  0  0  0  0  0  0  0  0  0  0  0
   25.2000   18.6190   14.4610 C   0  0  1  0  0  0  0  0  0  0  0  0
   26.2760   17.8790   15.2540 C   0  0  0  0  0  0  0  0  0  0  0  0
   26.4240   18.5210   16.6240 C   0  0  0  0  0  0  0  0  0  0  0  0
   26.7460   19.9930   16.5070 C   0  0  0  0  0  0  0  0  0  0  0  0
   27.3090   20.6130   17.4040 O   0  0  0  0  0  0  0  0  0  0  0  0
   26.3020   20.6330   15.3760 N   0  0  0  0  0  0  0  0  0  0  0  0
   25.5410   20.1130   14.3530 C   0  0  0  0  0  0  0  0  0  0  0  0
   25.0900   20.8520   13.4800 O   0  0  0  0  0  0  0  0  0  0  0  0
   23.9330   17.1230   12.8830 C   0  0  0  0  0  0  0  0  0  0  0  0
   23.0240   16.7650   13.6050 O   0  0  0  0  0  0  0  0  0  0  0  0
   26.9050   15.2370    7.3730 C   0  0  0  0  0  0  0  0  0  0  0  0
   28.1310   15.0850    8.0820 C   0  0  0  0  0  0  0  0  0  0  0  0
   29.0930   14.6760    7.1810 C   0  0  0  0  0  0  0  0  0  0  0  0
   28.5000   14.5860    5.9480 N   0  0  0  0  0  0  0  0  0  0  0  0
   27.1820   14.9400    6.0480 C   0  0  0  0  0  0  0  0  0  0  0  0
   26.3280   14.9800    5.0180 N   0  0  0  0  0  0  0  0  0  0  0  0
   24.9910   11.6480    4.0140 C   0  0  0  0  0  0  0  0  0  0  0  0
   25.4900   10.8480    4.9350 N   0  0  0  0  0  0  0  0  0  0  0  0
   24.7464    9.1845    8.6779 H   0  0  0  0  0  0  0  0  0  0  0  0
   23.8606    9.4192    7.1330 H   0  0  0  0  0  0  0  0  0  0  0  0
   25.4708    8.6230    7.1330 H   0  0  0  0  0  0  0  0  0  0  0  0
   25.2295   11.4079    8.2622 H   0  0  0  0  0  0  0  0  0  0  0  0
   26.6109   10.5937    7.4079 H   0  0  0  0  0  0  0  0  0  0  0  0
   24.0125   13.2561    6.7129 H   0  0  0  0  0  0  0  0  0  0  0  0
   23.3006   14.7137    8.8820 H   0  0  0  0  0  0  0  0  0  0  0  0
   22.4863   15.2993   11.1783 H   0  0  0  0  0  0  0  0  0  0  0  0
   26.7585   17.2919    9.4189 H   0  0  0  0  0  0  0  0  0  0  0  0
   26.9060   17.6658   12.4610 H   0  0  0  0  0  0  0  0  0  0  0  0
   26.1735   19.0724   11.7249 H   0  0  0  0  0  0  0  0  0  0  0  0
   24.2649   18.5011   15.0282 H   0  0  0  0  0  0  0  0  0  0  0  0
   25.9851   16.8247   15.3721 H   0  0  0  0  0  0  0  0  0  0  0  0
   27.2337   17.9359   14.7159 H   0  0  0  0  0  0  0  0  0  0  0  0
   25.4816   18.4031   17.1790 H   0  0  0  0  0  0  0  0  0  0  0  0
   27.2510   18.0250   17.1531 H   0  0  0  0  0  0  0  0  0  0  0  0
   26.5711   21.6227   15.2814 H   0  0  0  0  0  0  0  0  0  0  0  0
   28.2839   15.2622    9.1568 H   0  0  0  0  0  0  0  0  0  0  0  0
   30.1469   14.4607    7.4109 H   0  0  0  0  0  0  0  0  0  0  0  0
   28.9736   14.2966    5.0803 H   0  0  0  0  0  0  0  0  0  0  0  0
   25.0767   11.4865    2.9293 H   0  0  0  0  0  0  0  0  0  0  0  0
  1  2  1  0
  2  3  1  0
  3  4  2  0
  4  5  1  0
  5  6  1  0
  6  7  2  0
  6  8  2  0
  6  9  1  0
  9 10  1  0
 10 11  2  0
 11 12  1  0
 12 13  1  0
 13 14  2  0
 14 15  1  0
 15 16  2  0
 16 17  1  0
 17 18  2  0
 17 19  1  0
 19 20  1  0
 20 21  1  0
 21 22  1  0
 22 23  1  0
 23 24  1  0
 24 25  2  0
 24 26  1  0
 26 27  1  0
 27 28  2  0
 20 29  1  0
 29 30  2  0
 12 31  2  0
 31 32  1  0
 32 33  2  0
 33 34  1  0
 34 35  1  0
 35 36  2  0
  5 37  1  0
 37 38  2  0
 38  3  1  0
 36 10  1  0
 18 13  1  0
 27 21  1  0
 35 31  1  0
 29 16  1  0
  1 39  1  0
  1 40  1  0
  1 41  1  0
  2 42  1  0
  2 43  1  0
  4 44  1  0
 14 45  1  0
 15 46  1  0
 18 47  1  0
 19 48  1  0
 19 49  1  0
 21 50  1  1
 22 51  1  0
 22 52  1  0
 23 53  1  0
 23 54  1  0
 26 55  1  0
 32 56  1  0
 33 57  1  0
 34 58  1  0
 37 59  1  0
M  END
>  <meeko>  (73) 
{"is_sidechain": [true], "free_energy": -14.53, "intermolecular_energy": 0.0, "internal_energy": -14.53, "cluster_size": 10, "cluster_id": 1, "rank_in_cluster": 1}

>  <_RMSD_MCS_to_ref>  (73) 
0.43925391290232046

$$$$
ligand
     RDKit          3D

 63 67  0  0  0  0  0  0  0  0999 V2000
   24.8710    9.6160    7.7820 C   0  0  0  0  0  0  0  0  0  0  0  0
   25.4240   10.9650    7.3490 C   0  0  0  0  0  0  0  0  0  0  0  0
   26.9120   10.9940    7.3730 C   0  0  0  0  0  0  0  0  0  0  0  0
   27.7650   12.0380    7.0740 C   0  0  0  0  0  0  0  0  0  0  0  0
   29.0110   11.5270    7.3010 N   0  0  0  0  0  0  0  0  0  0  0  0
   30.4730   12.2930    6.9830 S   0  0  0  0  0  6  0  0  0  0  0  0
   30.1030   13.6510    6.6320 O   0  0  0  0  0  0  0  0  0  0  0  0
   31.1940   11.4250    6.0690 O   0  0  0  0  0  0  0  0  0  0  0  0
   31.3410   12.2990    8.5290 C   0  0  0  0  0  0  0  0  0  0  0  0
   32.6820   11.8820    8.5220 C   0  0  0  0  0  0  0  0  0  0  0  0
   33.4260   11.9230    9.6950 C   0  0  0  0  0  0  0  0  0  0  0  0
   32.8340   12.3850   10.8630 C   0  0  0  0  0  0  0  0  0  0  0  0
   31.4920   12.7870   10.8660 C   0  0  0  0  0  0  0  0  0  0  0  0
   30.6960   12.7200    9.7110 C   0  0  0  0  0  0  0  0  0  0  0  0
   29.3620   13.1500    9.6910 N   0  0  0  0  0  0  0  0  0  0  0  0
   28.9970   14.4220    9.0710 C   0  0  0  0  0  0  0  0  0  0  0  0
   27.6720   14.8200    9.5570 C   0  0  0  0  0  0  0  0  0  0  0  0
   26.5700   15.1000    9.9460 C   0  0  0  0  0  0  0  0  0  0  0  0
   25.3010   15.4780   10.4810 C   0  0  0  0  0  0  0  0  0  0  0  0
   24.1090   15.1900    9.8030 C   0  0  0  0  0  0  0  0  0  0  0  0
   22.8660   15.5930   10.3300 C   0  0  0  0  0  0  0  0  0  0  0  0
   22.7970   16.2930   11.5370 C   0  0  0  0  0  0  0  0  0  0  0  0
   23.9880   16.5580   12.1870 C   0  0  0  0  0  0  0  0  0  0  0  0
   25.2220   16.1590   11.6820 C   0  0  0  0  0  0  0  0  0  0  0  0
   26.3110   16.6170   12.5890 C   0  0  0  0  0  0  0  0  0  0  0  0
   25.5820   17.2160   13.6960 N   0  0  0  0  0  0  0  0  0  0  0  0
   26.2940   18.0060   14.6950 C   0  0  2  0  0  0  0  0  0  0  0  0
   25.7630   17.8450   16.1180 C   0  0  0  0  0  0  0  0  0  0  0  0
   26.6720   18.6040   17.0730 C   0  0  0  0  0  0  0  0  0  0  0  0
   26.7850   20.0600   16.6850 C   0  0  0  0  0  0  0  0  0  0  0  0
   27.0570   20.9350   17.5040 O   0  0  0  0  0  0  0  0  0  0  0  0
   26.6290   20.3600   15.3550 N   0  0  0  0  0  0  0  0  0  0  0  0
   26.3380   19.4980   14.3200 C   0  0  0  0  0  0  0  0  0  0  0  0
   26.2030   19.9290   13.1760 O   0  0  0  0  0  0  0  0  0  0  0  0
   24.2220   17.2840   13.4420 C   0  0  0  0  0  0  0  0  0  0  0  0
   23.3520   17.8340   14.0890 O   0  0  0  0  0  0  0  0  0  0  0  0
   28.8980   10.2100    7.6140 C   0  0  0  0  0  0  0  0  0  0  0  0
   27.6290    9.8620    7.7070 N   0  0  0  0  0  0  0  0  0  0  0  0
   24.8497    9.5640    8.8806 H   0  0  0  0  0  0  0  0  0  0  0  0
   23.8507    9.4948    7.3893 H   0  0  0  0  0  0  0  0  0  0  0  0
   25.5127    8.8135    7.3893 H   0  0  0  0  0  0  0  0  0  0  0  0
   25.0816   11.1767    6.3253 H   0  0  0  0  0  0  0  0  0  0  0  0
   25.0590   11.7237    8.0569 H   0  0  0  0  0  0  0  0  0  0  0  0
   27.5013   13.0495    6.7315 H   0  0  0  0  0  0  0  0  0  0  0  0
   33.1427   11.5235    7.5896 H   0  0  0  0  0  0  0  0  0  0  0  0
   34.4751   11.5922    9.6982 H   0  0  0  0  0  0  0  0  0  0  0  0
   33.4221   12.4356   11.7912 H   0  0  0  0  0  0  0  0  0  0  0  0
   31.0494   13.1657   11.7991 H   0  0  0  0  0  0  0  0  0  0  0  0
   28.6311   12.5631   10.1179 H   0  0  0  0  0  0  0  0  0  0  0  0
   29.7362   15.1906    9.3407 H   0  0  0  0  0  0  0  0  0  0  0  0
   28.9771   14.3129    7.9766 H   0  0  0  0  0  0  0  0  0  0  0  0
   24.1441   14.6434    8.8491 H   0  0  0  0  0  0  0  0  0  0  0  0
   21.9406   15.3540    9.7855 H   0  0  0  0  0  0  0  0  0  0  0  0
   21.8331   16.6204   11.9537 H   0  0  0  0  0  0  0  0  0  0  0  0
   26.9237   15.7698   12.9310 H   0  0  0  0  0  0  0  0  0  0  0  0
   27.0149   17.3110   12.1065 H   0  0  0  0  0  0  0  0  0  0  0  0
   27.3154   17.5977   14.6907 H   0  0  0  0  0  0  0  0  0  0  0  0
   24.7423   18.2506   16.1792 H   0  0  0  0  0  0  0  0  0  0  0  0
   25.7440   16.7793   16.3899 H   0  0  0  0  0  0  0  0  0  0  0  0
   26.2595   18.5355   18.0904 H   0  0  0  0  0  0  0  0  0  0  0  0
   27.6749   18.1544   17.0278 H   0  0  0  0  0  0  0  0  0  0  0  0
   26.7435   21.3511   15.0989 H   0  0  0  0  0  0  0  0  0  0  0  0
   29.7472    9.5281    7.7685 H   0  0  0  0  0  0  0  0  0  0  0  0
  1  2  1  0
  2  3  1  0
  3  4  2  0
  4  5  1  0
  5  6  1  0
  6  7  2  0
  6  8  2  0
  6  9  1  0
  9 10  2  0
 10 11  1  0
 11 12  2  0
 12 13  1  0
 13 14  2  0
 14 15  1  0
 15 16  1  0
 16 17  1  0
 17 18  3  0
 18 19  1  0
 19 20  2  0
 20 21  1  0
 21 22  2  0
 22 23  1  0
 23 24  2  0
 24 25  1  0
 25 26  1  0
 26 27  1  0
 27 28  1  0
 28 29  1  0
 29 30  1  0
 30 31  2  0
 30 32  1  0
 32 33  1  0
 33 34  2  0
 26 35  1  0
 35 36  2  0
  5 37  1  0
 37 38  2  0
 38  3  1  0
 14  9  1  0
 24 19  1  0
 33 27  1  0
 35 23  1  0
  1 39  1  0
  1 40  1  0
  1 41  1  0
  2 42  1  0
  2 43  1  0
  4 44  1  0
 10 45  1  0
 11 46  1  0
 12 47  1  0
 13 48  1  0
 15 49  1  0
 16 50  1  0
 16 51  1  0
 20 52  1  0
 21 53  1  0
 22 54  1  0
 25 55  1  0
 25 56  1  0
 27 57  1  1
 28 58  1  0
 28 59  1  0
 29 60  1  0
 29 61  1  0
 32 62  1  0
 37 63  1  0
M  END
>  <meeko>  (74) 
{"is_sidechain": [true], "free_energy": -14.53, "intermolecular_energy": 0.0, "internal_energy": -14.53, "cluster_size": 13, "cluster_id": 1, "rank_in_cluster": 1}

>  <_RMSD_MCS_to_ref>  (74) 
1.1865702910302263

$$$$
ligand
     RDKit          3D

 61 66  0  0  0  0  0  0  0  0999 V2000
   24.8540    9.4020    7.6050 C   0  0  0  0  0  0  0  0  0  0  0  0
   25.5230   10.7550    7.4270 C   0  0  0  0  0  0  0  0  0  0  0  0
   26.9830   10.7280    7.7290 C   0  0  0  0  0  0  0  0  0  0  0  0
   27.7700   11.7080    8.3020 C   0  0  0  0  0  0  0  0  0  0  0  0
   29.0170   11.1560    8.3410 N   0  0  0  0  0  0  0  0  0  0  0  0
   30.4510   11.9430    8.7380 S   0  0  0  0  0  6  0  0  0  0  0  0
   30.3960   12.0470   10.1860 O   0  0  0  0  0  0  0  0  0  0  0  0
   31.5050   11.1840    8.0890 O   0  0  0  0  0  0  0  0  0  0  0  0
   30.3620   13.4620    8.1310 O   0  0  0  0  0  0  0  0  0  0  0  0
   29.6930   13.6420    6.9440 C   0  0  0  0  0  0  0  0  0  0  0  0
   30.3570   13.2570    5.7740 C   0  0  0  0  0  0  0  0  0  0  0  0
   29.7170   13.3930    4.5480 C   0  0  0  0  0  0  0  0  0  0  0  0
   28.4280   13.9180    4.5040 C   0  0  0  0  0  0  0  0  0  0  0  0
   27.7880   14.3210    5.6930 C   0  0  0  0  0  0  0  0  0  0  0  0
   26.5120   14.8560    5.7200 C   0  0  0  0  0  0  0  0  0  0  0  0
   25.8930   15.2650    6.8410 N   0  0  0  0  0  0  0  0  0  0  0  0
   26.5850   15.1380    7.9870 C   0  0  0  0  0  0  0  0  0  0  0  0
   25.9430   15.6360    9.2200 C   0  0  0  0  0  0  0  0  0  0  0  0
   24.6140   15.2550    9.5530 C   0  0  0  0  0  0  0  0  0  0  0  0
   23.9760   15.7170   10.7100 C   0  0  0  0  0  0  0  0  0  0  0  0
   24.6860   16.5730   11.5230 C   0  0  0  0  0  0  0  0  0  0  0  0
   25.9860   16.9730   11.2360 C   0  0  0  0  0  0  0  0  0  0  0  0
   26.6210   16.5150   10.0920 C   0  0  0  0  0  0  0  0  0  0  0  0
   26.4910   17.8790   12.3090 C   0  0  0  0  0  0  0  0  0  0  0  0
   25.3270   18.0300   13.1700 N   0  0  0  0  0  0  0  0  0  0  0  0
   25.4230   18.6680   14.4770 C   0  0  1  0  0  0  0  0  0  0  0  0
   26.5090   18.0690   15.3680 C   0  0  0  0  0  0  0  0  0  0  0  0
   26.4870   18.7580   16.7230 C   0  0  0  0  0  0  0  0  0  0  0  0
   26.6560   20.2520   16.5810 C   0  0  0  0  0  0  0  0  0  0  0  0
   27.1000   20.9490   17.4890 O   0  0  0  0  0  0  0  0  0  0  0  0
   26.2130   20.8140   15.4100 N   0  0  0  0  0  0  0  0  0  0  0  0
   25.6130   20.1870   14.3420 C   0  0  0  0  0  0  0  0  0  0  0  0
   25.1850   20.8490   13.3970 O   0  0  0  0  0  0  0  0  0  0  0  0
   24.2790   17.2090   12.7810 C   0  0  0  0  0  0  0  0  0  0  0  0
   23.2220   17.0100   13.3490 O   0  0  0  0  0  0  0  0  0  0  0  0
   27.8260   14.6140    8.0810 N   0  0  0  0  0  0  0  0  0  0  0  0
   28.4150   14.2050    6.9380 C   0  0  0  0  0  0  0  0  0  0  0  0
   28.9800    9.9260    7.7690 C   0  0  0  0  0  0  0  0  0  0  0  0
   27.7470    9.6110    7.4290 N   0  0  0  0  0  0  0  0  0  0  0  0
   24.7464    9.1845    8.6779 H   0  0  0  0  0  0  0  0  0  0  0  0
   23.8606    9.4192    7.1330 H   0  0  0  0  0  0  0  0  0  0  0  0
   25.4708    8.6230    7.1330 H   0  0  0  0  0  0  0  0  0  0  0  0
   25.3867   11.0789    6.3846 H   0  0  0  0  0  0  0  0  0  0  0  0
   25.0530   11.4502    8.1381 H   0  0  0  0  0  0  0  0  0  0  0  0
   27.4617   12.7057    8.6479 H   0  0  0  0  0  0  0  0  0  0  0  0
   31.3776   12.8499    5.8243 H   0  0  0  0  0  0  0  0  0  0  0  0
   30.2241   13.0886    3.6205 H   0  0  0  0  0  0  0  0  0  0  0  0
   27.9085   14.0183    3.5396 H   0  0  0  0  0  0  0  0  0  0  0  0
   25.9717   14.9524    4.7667 H   0  0  0  0  0  0  0  0  0  0  0  0
   24.0702   14.5757    8.8800 H   0  0  0  0  0  0  0  0  0  0  0  0
   22.9499   15.4092   10.9598 H   0  0  0  0  0  0  0  0  0  0  0  0
   27.6486   16.8351    9.8648 H   0  0  0  0  0  0  0  0  0  0  0  0
   27.3306   17.4213   12.8527 H   0  0  0  0  0  0  0  0  0  0  0  0
   26.8805   18.8345   11.9278 H   0  0  0  0  0  0  0  0  0  0  0  0
   24.4636   18.4703   14.9775 H   0  0  0  0  0  0  0  0  0  0  0  0
   26.3230   16.9929   15.5003 H   0  0  0  0  0  0  0  0  0  0  0  0
   27.4925   18.2150   14.8974 H   0  0  0  0  0  0  0  0  0  0  0  0
   25.5250   18.5512   17.2147 H   0  0  0  0  0  0  0  0  0  0  0  0
   27.3223   18.3694   17.3240 H   0  0  0  0  0  0  0  0  0  0  0  0
   26.3461   21.8313   15.3192 H   0  0  0  0  0  0  0  0  0  0  0  0
   29.8575    9.2817    7.6112 H   0  0  0  0  0  0  0  0  0  0  0  0
  1  2  1  0
  2  3  1  0
  3  4  2  0
  4  5  1  0
  5  6  1  0
  6  7  2  0
  6  8  2  0
  6  9  1  0
  9 10  1  0
 10 11  2  0
 11 12  1  0
 12 13  2  0
 13 14  1  0
 14 15  2  0
 15 16  1  0
 16 17  2  0
 17 18  1  0
 18 19  2  0
 19 20  1  0
 20 21  2  0
 21 22  1  0
 22 23  2  0
 22 24  1  0
 24 25  1  0
 25 26  1  0
 26 27  1  0
 27 28  1  0
 28 29  1  0
 29 30  2  0
 29 31  1  0
 31 32  1  0
 32 33  2  0
 25 34  1  0
 34 35  2  0
 17 36  1  0
 36 37  2  0
  5 38  1  0
 38 39  2  0
 39  3  1  0
 37 10  1  0
 37 14  1  0
 23 18  1  0
 32 26  1  0
 34 21  1  0
  1 40  1  0
  1 41  1  0
  1 42  1  0
  2 43  1  0
  2 44  1  0
  4 45  1  0
 11 46  1  0
 12 47  1  0
 13 48  1  0
 15 49  1  0
 19 50  1  0
 20 51  1  0
 23 52  1  0
 24 53  1  0
 24 54  1  0
 26 55  1  1
 27 56  1  0
 27 57  1  0
 28 58  1  0
 28 59  1  0
 31 60  1  0
 38 61  1  0
M  END
>  <meeko>  (75) 
{"is_sidechain": [true], "free_energy": -14.52, "intermolecular_energy": 0.0, "internal_energy": -14.52, "cluster_size": 13, "cluster_id": 1, "rank_in_cluster": 1}

>  <_RMSD_MCS_to_ref>  (75) 
0.5973005013298479

$$$$
ligand
     RDKit          3D

 58 62  0  0  0  0  0  0  0  0999 V2000
   24.8540    9.4020    7.6050 C   0  0  0  0  0  0  0  0  0  0  0  0
   25.5230   10.7550    7.4270 C   0  0  0  0  0  0  0  0  0  0  0  0
   24.8340   11.6010    6.4140 C   0  0  0  0  0  0  0  0  0  0  0  0
   25.2670   11.9730    5.1560 C   0  0  0  0  0  0  0  0  0  0  0  0
   24.2480   12.7330    4.6570 N   0  0  0  0  0  0  0  0  0  0  0  0
   24.3280   13.7120    3.2920 S   0  0  0  0  0  6  0  0  0  0  0  0
   24.8870   12.8740    2.2470 O   0  0  0  0  0  0  0  0  0  0  0  0
   23.0270   14.3420    3.1810 O   0  0  0  0  0  0  0  0  0  0  0  0
   25.5230   14.9560    3.7150 C   0  0  0  0  0  0  0  0  0  0  0  0
   26.4840   15.3360    2.7910 C   0  0  0  0  0  0  0  0  0  0  0  0
   27.4060   16.3020    3.1850 C   0  0  0  0  0  0  0  0  0  0  0  0
   27.3320   16.8400    4.4700 C   0  0  0  0  0  0  0  0  0  0  0  0
   26.3280   16.3900    5.3240 C   0  0  0  0  0  0  0  0  0  0  0  0
   26.2120   16.9390    6.7170 C   0  0  0  0  0  0  0  0  0  0  0  0
   26.7860   17.9810    7.0060 O   0  0  0  0  0  0  0  0  0  0  0  0
   25.4280   16.1600    7.5490 N   0  0  0  0  0  0  0  0  0  0  0  0
   25.0930   16.3950    8.8960 C   0  0  0  0  0  0  0  0  0  0  0  0
   23.8610   15.8580    9.3460 C   0  0  0  0  0  0  0  0  0  0  0  0
   23.4260   16.0290   10.6650 C   0  0  0  0  0  0  0  0  0  0  0  0
   24.2480   16.7430   11.5080 C   0  0  0  0  0  0  0  0  0  0  0  0
   25.4500   17.2730   11.0770 C   0  0  0  0  0  0  0  0  0  0  0  0
   25.9000   17.1190    9.7790 C   0  0  0  0  0  0  0  0  0  0  0  0
   26.0520   17.9720   12.2120 C   0  0  0  0  0  0  0  0  0  0  0  0
   27.0920   18.6000   12.1600 O   0  0  0  0  0  0  0  0  0  0  0  0
   25.2130   17.7890   13.2780 N   0  0  0  0  0  0  0  0  0  0  0  0
   25.3560   18.4350   14.5740 C   0  0  1  0  0  0  0  0  0  0  0  0
   26.4240   17.8120   15.4690 C   0  0  0  0  0  0  0  0  0  0  0  0
   26.4500   18.5470   16.8010 C   0  0  0  0  0  0  0  0  0  0  0  0
   26.6810   20.0290   16.6070 C   0  0  0  0  0  0  0  0  0  0  0  0
   27.2120   20.7260   17.4660 O   0  0  0  0  0  0  0  0  0  0  0  0
   26.2120   20.5760   15.4390 N   0  0  0  0  0  0  0  0  0  0  0  0
   25.6400   19.9260   14.3680 C   0  0  0  0  0  0  0  0  0  0  0  0
   25.3330   20.5490   13.3550 O   0  0  0  0  0  0  0  0  0  0  0  0
   24.0880   17.0970   12.9160 C   0  0  0  0  0  0  0  0  0  0  0  0
   23.1240   16.7990   13.5940 O   0  0  0  0  0  0  0  0  0  0  0  0
   25.4100   15.4510    4.9740 N   0  0  0  0  0  0  0  0  0  0  0  0
   23.2630   12.8200    5.5920 C   0  0  0  0  0  0  0  0  0  0  0  0
   23.5950   12.1520    6.6780 N   0  0  0  0  0  0  0  0  0  0  0  0
   24.7464    9.1845    8.6779 H   0  0  0  0  0  0  0  0  0  0  0  0
   23.8606    9.4192    7.1330 H   0  0  0  0  0  0  0  0  0  0  0  0
   25.4708    8.6230    7.1330 H   0  0  0  0  0  0  0  0  0  0  0  0
   25.5148   11.2826    8.3922 H   0  0  0  0  0  0  0  0  0  0  0  0
   26.5492   10.5773    7.0729 H   0  0  0  0  0  0  0  0  0  0  0  0
   26.2179   11.7152    4.6667 H   0  0  0  0  0  0  0  0  0  0  0  0
   26.5169   14.8915    1.7853 H   0  0  0  0  0  0  0  0  0  0  0  0
   28.1874   16.6387    2.4878 H   0  0  0  0  0  0  0  0  0  0  0  0
   28.0512   17.6033    4.8017 H   0  0  0  0  0  0  0  0  0  0  0  0
   25.0414   15.3016    7.1311 H   0  0  0  0  0  0  0  0  0  0  0  0
   23.2320   15.2936    8.6419 H   0  0  0  0  0  0  0  0  0  0  0  0
   22.4697   15.6115   11.0130 H   0  0  0  0  0  0  0  0  0  0  0  0
   26.8579   17.5503    9.4527 H   0  0  0  0  0  0  0  0  0  0  0  0
   24.4039   18.2882   15.1049 H   0  0  0  0  0  0  0  0  0  0  0  0
   26.1889   16.7509   15.6386 H   0  0  0  0  0  0  0  0  0  0  0  0
   27.4074   17.8926   14.9827 H   0  0  0  0  0  0  0  0  0  0  0  0
   25.4868   18.3983   17.3110 H   0  0  0  0  0  0  0  0  0  0  0  0
   27.2765   18.1430   17.4041 H   0  0  0  0  0  0  0  0  0  0  0  0
   26.2984   21.5987   15.3527 H   0  0  0  0  0  0  0  0  0  0  0  0
   22.3205   13.3715    5.4595 H   0  0  0  0  0  0  0  0  0  0  0  0
  1  2  1  0
  2  3  1  0
  3  4  2  0
  4  5  1  0
  5  6  1  0
  6  7  2  0
  6  8  2  0
  6  9  1  0
  9 10  2  0
 10 11  1  0
 11 12  2  0
 12 13  1  0
 13 14  1  0
 14 15  2  0
 14 16  1  0
 16 17  1  0
 17 18  2  0
 18 19  1  0
 19 20  2  0
 20 21  1  0
 21 22  2  0
 21 23  1  0
 23 24  2  0
 23 25  1  0
 25 26  1  0
 26 27  1  0
 27 28  1  0
 28 29  1  0
 29 30  2  0
 29 31  1  0
 31 32  1  0
 32 33  2  0
 25 34  1  0
 34 35  2  0
 13 36  2  0
  5 37  1  0
 37 38  2  0
 38  3  1  0
 36  9  1  0
 22 17  1  0
 32 26  1  0
 34 20  1  0
  1 39  1  0
  1 40  1  0
  1 41  1  0
  2 42  1  0
  2 43  1  0
  4 44  1  0
 10 45  1  0
 11 46  1  0
 12 47  1  0
 16 48  1  0
 18 49  1  0
 19 50  1  0
 22 51  1  0
 26 52  1  1
 27 53  1  0
 27 54  1  0
 28 55  1  0
 28 56  1  0
 31 57  1  0
 37 58  1  0
M  END
>  <meeko>  (76) 
{"is_sidechain": [true], "free_energy": -14.51, "intermolecular_energy": 0.0, "internal_energy": -14.51, "cluster_size": 20, "cluster_id": 1, "rank_in_cluster": 1}

>  <_RMSD_MCS_to_ref>  (76) 
0.5135342004190168

$$$$
ligand
     RDKit          3D

 63 68  0  0  0  0  0  0  0  0999 V2000
   24.8710    9.6160    7.7820 C   0  0  0  0  0  0  0  0  0  0  0  0
   25.4240   10.9650    7.3490 C   0  0  0  0  0  0  0  0  0  0  0  0
   26.8190   11.1780    7.8210 C   0  0  0  0  0  0  0  0  0  0  0  0
   27.2530   11.7300    9.0100 C   0  0  0  0  0  0  0  0  0  0  0  0
   28.6140   11.6190    8.9590 N   0  0  0  0  0  0  0  0  0  0  0  0
   29.7010   12.3610   10.0230 S   0  0  0  0  0  6  0  0  0  0  0  0
   30.9870   11.7990    9.6510 O   0  0  0  0  0  0  0  0  0  0  0  0
   29.1070   12.1360   11.3260 O   0  0  0  0  0  0  0  0  0  0  0  0
   29.6310   13.9640    9.6690 O   0  0  0  0  0  0  0  0  0  0  0  0
   28.5350   14.4400    9.0120 C   0  0  0  0  0  0  0  0  0  0  0  0
   27.3980   14.7900    9.7460 C   0  0  0  0  0  0  0  0  0  0  0  0
   26.2270   15.2540    9.1010 C   0  0  0  0  0  0  0  0  0  0  0  0
   25.0140   15.5780    9.8690 C   0  0  0  0  0  0  0  0  0  0  0  0
   23.7330   15.2670    9.3690 C   0  0  0  0  0  0  0  0  0  0  0  0
   22.5590   15.5380   10.1010 C   0  0  0  0  0  0  0  0  0  0  0  0
   22.6320   16.1230   11.3620 C   0  0  0  0  0  0  0  0  0  0  0  0
   23.8890   16.4230   11.8470 C   0  0  0  0  0  0  0  0  0  0  0  0
   25.0600   16.1740   11.1280 C   0  0  0  0  0  0  0  0  0  0  0  0
   26.2390   16.6240   11.9310 C   0  0  0  0  0  0  0  0  0  0  0  0
   25.6360   17.0930   13.1680 N   0  0  0  0  0  0  0  0  0  0  0  0
   26.3650   17.8800   14.1630 C   0  0  2  0  0  0  0  0  0  0  0  0
   25.8330   17.5940   15.5670 C   0  0  0  0  0  0  0  0  0  0  0  0
   26.6420   18.3560   16.6000 C   0  0  0  0  0  0  0  0  0  0  0  0
   26.6490   19.8340   16.3080 C   0  0  0  0  0  0  0  0  0  0  0  0
   26.6900   20.6770   17.2010 O   0  0  0  0  0  0  0  0  0  0  0  0
   26.6630   20.1960   14.9860 N   0  0  0  0  0  0  0  0  0  0  0  0
   26.3660   19.3990   13.9030 C   0  0  0  0  0  0  0  0  0  0  0  0
   26.1680   19.9090   12.8010 O   0  0  0  0  0  0  0  0  0  0  0  0
   24.2530   17.0400   13.1280 C   0  0  0  0  0  0  0  0  0  0  0  0
   23.4640   17.4540   13.9540 O   0  0  0  0  0  0  0  0  0  0  0  0
   26.2350   15.3930    7.6970 C   0  0  0  0  0  0  0  0  0  0  0  0
   27.3830   15.0850    6.9780 C   0  0  0  0  0  0  0  0  0  0  0  0
   28.5110   14.6260    7.6420 C   0  0  0  0  0  0  0  0  0  0  0  0
   29.5630   14.4180    6.6560 C   0  0  0  0  0  0  0  0  0  0  0  0
   30.6990   14.0740    6.9330 O   0  0  0  0  0  0  0  0  0  0  0  0
   29.0290   14.7060    5.2770 C   0  0  0  0  0  0  0  0  0  0  0  0
   27.5860   15.1880    5.5000 C   0  0  0  0  0  0  0  0  0  0  0  0
   28.9680   11.0940    7.7560 C   0  0  0  0  0  0  0  0  0  0  0  0
   27.8990   10.8200    7.0350 N   0  0  0  0  0  0  0  0  0  0  0  0
   24.8497    9.5640    8.8806 H   0  0  0  0  0  0  0  0  0  0  0  0
   23.8507    9.4948    7.3893 H   0  0  0  0  0  0  0  0  0  0  0  0
   25.5127    8.8135    7.3893 H   0  0  0  0  0  0  0  0  0  0  0  0
   25.4098   11.0176    6.2504 H   0  0  0  0  0  0  0  0  0  0  0  0
   24.7931   11.7478    7.7954 H   0  0  0  0  0  0  0  0  0  0  0  0
   26.6414   12.1615    9.8160 H   0  0  0  0  0  0  0  0  0  0  0  0
   27.4138   14.7034   10.8425 H   0  0  0  0  0  0  0  0  0  0  0  0
   23.6469   14.7986    8.3774 H   0  0  0  0  0  0  0  0  0  0  0  0
   21.5779   15.2853    9.6725 H   0  0  0  0  0  0  0  0  0  0  0  0
   21.7258   16.3373   11.9475 H   0  0  0  0  0  0  0  0  0  0  0  0
   26.9298   15.7891   12.1202 H   0  0  0  0  0  0  0  0  0  0  0  0
   26.8393   17.3936   11.4237 H   0  0  0  0  0  0  0  0  0  0  0  0
   27.4129   17.5570   14.0764 H   0  0  0  0  0  0  0  0  0  0  0  0
   24.7802   17.9069   15.6272 H   0  0  0  0  0  0  0  0  0  0  0  0
   25.9170   16.5161   15.7696 H   0  0  0  0  0  0  0  0  0  0  0  0
   26.2018   18.1892   17.5942 H   0  0  0  0  0  0  0  0  0  0  0  0
   27.6790   17.9907   16.5674 H   0  0  0  0  0  0  0  0  0  0  0  0
   26.9243   21.1708   14.7801 H   0  0  0  0  0  0  0  0  0  0  0  0
   25.3341   15.7445    7.1728 H   0  0  0  0  0  0  0  0  0  0  0  0
   29.6265   15.4889    4.7870 H   0  0  0  0  0  0  0  0  0  0  0  0
   29.0723   13.8213    4.6247 H   0  0  0  0  0  0  0  0  0  0  0  0
   27.4666   16.2281    5.1624 H   0  0  0  0  0  0  0  0  0  0  0  0
   26.8535   14.5937    4.9340 H   0  0  0  0  0  0  0  0  0  0  0  0
   30.0041   10.9215    7.4292 H   0  0  0  0  0  0  0  0  0  0  0  0
  1  2  1  0
  2  3  1  0
  3  4  2  0
  4  5  1  0
  5  6  1  0
  6  7  2  0
  6  8  2  0
  6  9  1  0
  9 10  1  0
 10 11  2  0
 11 12  1  0
 12 13  1  0
 13 14  2  0
 14 15  1  0
 15 16  2  0
 16 17  1  0
 17 18  2  0
 18 19  1  0
 19 20  1  0
 20 21  1  0
 21 22  1  0
 22 23  1  0
 23 24  1  0
 24 25  2  0
 24 26  1  0
 26 27  1  0
 27 28  2  0
 20 29  1  0
 29 30  2  0
 12 31  2  0
 31 32  1  0
 32 33  2  0
 33 34  1  0
 34 35  2  0
 34 36  1  0
 36 37  1  0
  5 38  1  0
 38 39  2  0
 39  3  1  0
 33 10  1  0
 18 13  1  0
 27 21  1  0
 37 32  1  0
 29 17  1  0
  1 40  1  0
  1 41  1  0
  1 42  1  0
  2 43  1  0
  2 44  1  0
  4 45  1  0
 11 46  1  0
 14 47  1  0
 15 48  1  0
 16 49  1  0
 19 50  1  0
 19 51  1  0
 21 52  1  1
 22 53  1  0
 22 54  1  0
 23 55  1  0
 23 56  1  0
 26 57  1  0
 31 58  1  0
 36 59  1  0
 36 60  1  0
 37 61  1  0
 37 62  1  0
 38 63  1  0
M  END
>  <meeko>  (77) 
{"is_sidechain": [true], "free_energy": -14.51, "intermolecular_energy": 0.0, "internal_energy": -14.51, "cluster_size": 17, "cluster_id": 1, "rank_in_cluster": 1}

>  <_RMSD_MCS_to_ref>  (77) 
1.1483021040746297

$$$$
ligand
     RDKit          3D

 61 66  0  0  0  0  0  0  0  0999 V2000
   24.8710    9.6160    7.7820 C   0  0  0  0  0  0  0  0  0  0  0  0
   25.4240   10.9650    7.3490 C   0  0  0  0  0  0  0  0  0  0  0  0
   26.8740   11.1010    7.6580 C   0  0  0  0  0  0  0  0  0  0  0  0
   27.4980   11.9790    8.5220 C   0  0  0  0  0  0  0  0  0  0  0  0
   28.8230   11.6640    8.4150 N   0  0  0  0  0  0  0  0  0  0  0  0
   30.0830   12.4340    9.2300 S   0  0  0  0  0  6  0  0  0  0  0  0
   31.2790   11.6540    8.9650 O   0  0  0  0  0  0  0  0  0  0  0  0
   29.5790   12.5570   10.5890 O   0  0  0  0  0  0  0  0  0  0  0  0
   30.2620   13.9430    8.6470 O   0  0  0  0  0  0  0  0  0  0  0  0
   29.4270   14.4060    7.6650 C   0  0  0  0  0  0  0  0  0  0  0  0
   28.2110   14.9350    8.0670 C   0  0  0  0  0  0  0  0  0  0  0  0
   27.2990   15.3930    7.0910 C   0  0  0  0  0  0  0  0  0  0  0  0
   26.0300   15.9610    7.3570 C   0  0  0  0  0  0  0  0  0  0  0  0
   25.5090   16.1950    8.7150 C   0  0  0  0  0  0  0  0  0  0  0  0
   24.2420   15.6900    9.1080 C   0  0  0  0  0  0  0  0  0  0  0  0
   23.7360   15.9080   10.3930 C   0  0  0  0  0  0  0  0  0  0  0  0
   24.5240   16.6220   11.2710 C   0  0  0  0  0  0  0  0  0  0  0  0
   25.7790   17.1170   10.9250 C   0  0  0  0  0  0  0  0  0  0  0  0
   26.2840   16.9090    9.6530 C   0  0  0  0  0  0  0  0  0  0  0  0
   26.3800   17.8430   12.0820 C   0  0  0  0  0  0  0  0  0  0  0  0
   25.3880   17.6440   13.1330 N   0  0  0  0  0  0  0  0  0  0  0  0
   25.3900   18.3800   14.3900 C   0  0  1  0  0  0  0  0  0  0  0  0
   26.3180   17.7570   15.4290 C   0  0  0  0  0  0  0  0  0  0  0  0
   26.1990   18.5250   16.7370 C   0  0  0  0  0  0  0  0  0  0  0  0
   26.4820   19.9950   16.5340 C   0  0  0  0  0  0  0  0  0  0  0  0
   27.0650   20.6740   17.3740 O   0  0  0  0  0  0  0  0  0  0  0  0
   26.0390   20.5480   15.3600 N   0  0  0  0  0  0  0  0  0  0  0  0
   25.7750   19.8570   14.1990 C   0  0  0  0  0  0  0  0  0  0  0  0
   25.8630   20.4180   13.1100 O   0  0  0  0  0  0  0  0  0  0  0  0
   24.2540   16.9990   12.6630 C   0  0  0  0  0  0  0  0  0  0  0  0
   23.2170   16.7750   13.2590 O   0  0  0  0  0  0  0  0  0  0  0  0
   25.1680   16.3430    6.3750 N   0  0  0  0  0  0  0  0  0  0  0  0
   25.5630   16.1980    5.0970 C   0  0  0  0  0  0  0  0  0  0  0  0
   26.7870   15.6750    4.7290 C   0  0  0  0  0  0  0  0  0  0  0  0
   27.6640   15.2620    5.7380 C   0  0  0  0  0  0  0  0  0  0  0  0
   28.9110   14.7050    5.4500 C   0  0  0  0  0  0  0  0  0  0  0  0
   29.7920   14.2760    6.3820 N   0  0  0  0  0  0  0  0  0  0  0  0
   28.9740   10.6510    7.5240 C   0  0  0  0  0  0  0  0  0  0  0  0
   27.8020   10.2820    7.0440 N   0  0  0  0  0  0  0  0  0  0  0  0
   24.8497    9.5640    8.8806 H   0  0  0  0  0  0  0  0  0  0  0  0
   23.8507    9.4948    7.3893 H   0  0  0  0  0  0  0  0  0  0  0  0
   25.5127    8.8135    7.3893 H   0  0  0  0  0  0  0  0  0  0  0  0
   25.2807   11.0754    6.2640 H   0  0  0  0  0  0  0  0  0  0  0  0
   24.8845   11.7464    7.9043 H   0  0  0  0  0  0  0  0  0  0  0  0
   27.0350   12.7534    9.1512 H   0  0  0  0  0  0  0  0  0  0  0  0
   27.9586   14.9976    9.1358 H   0  0  0  0  0  0  0  0  0  0  0  0
   23.6449   15.1143    8.3855 H   0  0  0  0  0  0  0  0  0  0  0  0
   22.7489   15.5253   10.6916 H   0  0  0  0  0  0  0  0  0  0  0  0
   27.2764   17.2953    9.3773 H   0  0  0  0  0  0  0  0  0  0  0  0
   27.3499   17.4072   12.3638 H   0  0  0  0  0  0  0  0  0  0  0  0
   26.5890   18.9025   11.8728 H   0  0  0  0  0  0  0  0  0  0  0  0
   24.3555   18.3237   14.7597 H   0  0  0  0  0  0  0  0  0  0  0  0
   26.0337   16.7070   15.5926 H   0  0  0  0  0  0  0  0  0  0  0  0
   27.3564   17.8026   15.0690 H   0  0  0  0  0  0  0  0  0  0  0  0
   25.1788   18.4069   17.1311 H   0  0  0  0  0  0  0  0  0  0  0  0
   26.9372   18.1224   17.4462 H   0  0  0  0  0  0  0  0  0  0  0  0
   25.8912   21.5672   15.3456 H   0  0  0  0  0  0  0  0  0  0  0  0
   24.8725   16.5136    4.3010 H   0  0  0  0  0  0  0  0  0  0  0  0
   27.0657   15.5853    3.6687 H   0  0  0  0  0  0  0  0  0  0  0  0
   29.1968   14.6083    4.3922 H   0  0  0  0  0  0  0  0  0  0  0  0
   29.9375   10.2014    7.2421 H   0  0  0  0  0  0  0  0  0  0  0  0
  1  2  1  0
  2  3  1  0
  3  4  2  0
  4  5  1  0
  5  6  1  0
  6  7  2  0
  6  8  2  0
  6  9  1  0
  9 10  1  0
 10 11  2  0
 11 12  1  0
 12 13  2  0
 13 14  1  0
 14 15  2  0
 15 16  1  0
 16 17  2  0
 17 18  1  0
 18 19  2  0
 18 20  1  0
 20 21  1  0
 21 22  1  0
 22 23  1  0
 23 24  1  0
 24 25  1  0
 25 26  2  0
 25 27  1  0
 27 28  1  0
 28 29  2  0
 21 30  1  0
 30 31  2  0
 13 32  1  0
 32 33  2  0
 33 34  1  0
 34 35  2  0
 35 36  1  0
 36 37  2  0
  5 38  1  0
 38 39  2  0
 39  3  1  0
 37 10  1  0
 35 12  1  0
 19 14  1  0
 28 22  1  0
 30 17  1  0
  1 40  1  0
  1 41  1  0
  1 42  1  0
  2 43  1  0
  2 44  1  0
  4 45  1  0
 11 46  1  0
 15 47  1  0
 16 48  1  0
 19 49  1  0
 20 50  1  0
 20 51  1  0
 22 52  1  1
 23 53  1  0
 23 54  1  0
 24 55  1  0
 24 56  1  0
 27 57  1  0
 33 58  1  0
 34 59  1  0
 36 60  1  0
 38 61  1  0
M  END
>  <meeko>  (78) 
{"is_sidechain": [true], "free_energy": -14.47, "intermolecular_energy": 0.0, "internal_energy": -14.47, "cluster_size": 18, "cluster_id": 1, "rank_in_cluster": 1}

>  <_RMSD_MCS_to_ref>  (78) 
0.6784211547098857

$$$$
ligand
     RDKit          3D

 63 68  0  0  0  0  0  0  0  0999 V2000
   24.8540    9.4020    7.6050 C   0  0  0  0  0  0  0  0  0  0  0  0
   25.5230   10.7550    7.4270 C   0  0  0  0  0  0  0  0  0  0  0  0
   24.7450   11.6650    6.5410 C   0  0  0  0  0  0  0  0  0  0  0  0
   25.1510   12.3190    5.3940 C   0  0  0  0  0  0  0  0  0  0  0  0
   24.0390   12.9890    4.9730 N   0  0  0  0  0  0  0  0  0  0  0  0
   23.9890   14.1940    3.7970 S   0  0  0  0  0  6  0  0  0  0  0  0
   22.5920   14.3000    3.4250 O   0  0  0  0  0  0  0  0  0  0  0  0
   25.0330   13.8780    2.8440 O   0  0  0  0  0  0  0  0  0  0  0  0
   24.4560   15.6460    4.7000 C   0  0  0  0  0  0  0  0  0  0  0  0
   23.8130   16.8580    4.4480 C   0  0  0  0  0  0  0  0  0  0  0  0
   24.1210   17.9700    5.2290 C   0  0  0  0  0  0  0  0  0  0  0  0
   25.0540   17.8670    6.2670 C   0  0  0  0  0  0  0  0  0  0  0  0
   25.6990   16.6500    6.5230 C   0  0  0  0  0  0  0  0  0  0  0  0
   26.6220   16.4960    7.5990 N   0  0  0  0  0  0  0  0  0  0  0  0
   27.9550   16.4580    7.3240 N   0  0  0  0  0  0  0  0  0  0  0  0
   28.5500   16.4660    8.5140 C   0  0  0  0  0  0  0  0  0  0  0  0
   27.6330   16.3880    9.5660 C   0  0  0  0  0  0  0  0  0  0  0  0
   26.3890   16.3200    8.9640 C   0  0  0  0  0  0  0  0  0  0  0  0
   25.1150   15.9990    9.6020 C   0  0  0  0  0  0  0  0  0  0  0  0
   24.1300   15.2800    8.9010 C   0  0  0  0  0  0  0  0  0  0  0  0
   22.8830   14.9860    9.4870 C   0  0  0  0  0  0  0  0  0  0  0  0
   22.5900   15.4160   10.7810 C   0  0  0  0  0  0  0  0  0  0  0  0
   23.5650   16.1340   11.4480 C   0  0  0  0  0  0  0  0  0  0  0  0
   24.8080   16.4300   10.8870 C   0  0  0  0  0  0  0  0  0  0  0  0
   25.6050   17.2530   11.8480 C   0  0  0  0  0  0  0  0  0  0  0  0
   24.7490   17.2960   13.0260 N   0  0  0  0  0  0  0  0  0  0  0  0
   25.0190   18.1510   14.1790 C   0  0  1  0  0  0  0  0  0  0  0  0
   26.1170   17.5770   15.0690 C   0  0  0  0  0  0  0  0  0  0  0  0
   26.3370   18.4830   16.2700 C   0  0  0  0  0  0  0  0  0  0  0  0
   26.6570   19.8920   15.8290 C   0  0  0  0  0  0  0  0  0  0  0  0
   27.4710   20.6020   16.4110 O   0  0  0  0  0  0  0  0  0  0  0  0
   25.9670   20.3590   14.7400 N   0  0  0  0  0  0  0  0  0  0  0  0
   25.3940   19.5830   13.7590 C   0  0  0  0  0  0  0  0  0  0  0  0
   25.2110   20.0470   12.6350 O   0  0  0  0  0  0  0  0  0  0  0  0
   23.5130   16.7180   12.7940 C   0  0  0  0  0  0  0  0  0  0  0  0
   22.5530   16.6720   13.5380 O   0  0  0  0  0  0  0  0  0  0  0  0
   25.4240   15.5430    5.7060 C   0  0  0  0  0  0  0  0  0  0  0  0
   23.0300   12.7690    5.8580 C   0  0  0  0  0  0  0  0  0  0  0  0
   23.4280   11.9730    6.8270 N   0  0  0  0  0  0  0  0  0  0  0  0
   24.7464    9.1845    8.6779 H   0  0  0  0  0  0  0  0  0  0  0  0
   23.8606    9.4192    7.1330 H   0  0  0  0  0  0  0  0  0  0  0  0
   25.4708    8.6230    7.1330 H   0  0  0  0  0  0  0  0  0  0  0  0
   25.6281   11.2289    8.4141 H   0  0  0  0  0  0  0  0  0  0  0  0
   26.5011   10.5840    6.9536 H   0  0  0  0  0  0  0  0  0  0  0  0
   26.1462   12.3033    4.9256 H   0  0  0  0  0  0  0  0  0  0  0  0
   23.0700   16.9351    3.6405 H   0  0  0  0  0  0  0  0  0  0  0  0
   23.6287   18.9331    5.0288 H   0  0  0  0  0  0  0  0  0  0  0  0
   25.2824   18.7473    6.8858 H   0  0  0  0  0  0  0  0  0  0  0  0
   29.6393   16.5270    8.6540 H   0  0  0  0  0  0  0  0  0  0  0  0
   27.8535   16.3820   10.6437 H   0  0  0  0  0  0  0  0  0  0  0  0
   24.3374   14.9407    7.8754 H   0  0  0  0  0  0  0  0  0  0  0  0
   22.1348   14.4130    8.9197 H   0  0  0  0  0  0  0  0  0  0  0  0
   21.6214   15.1927   11.2522 H   0  0  0  0  0  0  0  0  0  0  0  0
   26.5683   16.7734   12.0759 H   0  0  0  0  0  0  0  0  0  0  0  0
   25.8601   18.2499   11.4593 H   0  0  0  0  0  0  0  0  0  0  0  0
   24.0826   18.1883   14.7550 H   0  0  0  0  0  0  0  0  0  0  0  0
   25.8190   16.5768   15.4165 H   0  0  0  0  0  0  0  0  0  0  0  0
   27.0510   17.5076   14.4922 H   0  0  0  0  0  0  0  0  0  0  0  0
   25.4242   18.4960   16.8837 H   0  0  0  0  0  0  0  0  0  0  0  0
   27.1855   18.0952   16.8529 H   0  0  0  0  0  0  0  0  0  0  0  0
   25.8691   21.3802   14.6484 H   0  0  0  0  0  0  0  0  0  0  0  0
   25.9668   14.5980    5.8554 H   0  0  0  0  0  0  0  0  0  0  0  0
   22.0203   13.1975    5.7751 H   0  0  0  0  0  0  0  0  0  0  0  0
  1  2  1  0
  2  3  1  0
  3  4  2  0
  4  5  1  0
  5  6  1  0
  6  7  2  0
  6  8  2  0
  6  9  1  0
  9 10  2  0
 10 11  1  0
 11 12  2  0
 12 13  1  0
 13 14  1  0
 14 15  1  0
 15 16  2  0
 16 17  1  0
 17 18  2  0
 18 19  1  0
 19 20  2  0
 20 21  1  0
 21 22  2  0
 22 23  1  0
 23 24  2  0
 24 25  1  0
 25 26  1  0
 26 27  1  0
 27 28  1  0
 28 29  1  0
 29 30  1  0
 30 31  2  0
 30 32  1  0
 32 33  1  0
 33 34  2  0
 26 35  1  0
 35 36  2  0
 13 37  2  0
  5 38  1  0
 38 39  2  0
 39  3  1  0
 37  9  1  0
 18 14  1  0
 24 19  1  0
 33 27  1  0
 35 23  1  0
  1 40  1  0
  1 41  1  0
  1 42  1  0
  2 43  1  0
  2 44  1  0
  4 45  1  0
 10 46  1  0
 11 47  1  0
 12 48  1  0
 16 49  1  0
 17 50  1  0
 20 51  1  0
 21 52  1  0
 22 53  1  0
 25 54  1  0
 25 55  1  0
 27 56  1  1
 28 57  1  0
 28 58  1  0
 29 59  1  0
 29 60  1  0
 32 61  1  0
 37 62  1  0
 38 63  1  0
M  END
>  <meeko>  (79) 
{"is_sidechain": [true], "free_energy": -14.46, "intermolecular_energy": 0.0, "internal_energy": -14.46, "cluster_size": 18, "cluster_id": 1, "rank_in_cluster": 1}

>  <_RMSD_MCS_to_ref>  (79) 
0.783216516112314

$$$$
ligand
     RDKit          3D

 63 68  0  0  0  0  0  0  0  0999 V2000
   24.8540    9.4020    7.6050 C   0  0  0  0  0  0  0  0  0  0  0  0
   25.5230   10.7550    7.4270 C   0  0  0  0  0  0  0  0  0  0  0  0
   25.1650   11.3870    6.1290 C   0  0  0  0  0  0  0  0  0  0  0  0
   24.0680   12.1630    5.8140 C   0  0  0  0  0  0  0  0  0  0  0  0
   24.2740   12.5210    4.5100 N   0  0  0  0  0  0  0  0  0  0  0  0
   23.1860   13.3540    3.5390 S   0  0  0  0  0  6  0  0  0  0  0  0
   22.9950   12.5990    2.3160 O   0  0  0  0  0  0  0  0  0  0  0  0
   22.0690   13.5840    4.4440 O   0  0  0  0  0  0  0  0  0  0  0  0
   23.8840   14.9570    3.1530 C   0  0  0  0  0  0  0  0  0  0  0  0
   23.5960   15.4130    1.8480 C   0  0  0  0  0  0  0  0  0  0  0  0
   23.9460   16.6980    1.4370 C   0  0  0  0  0  0  0  0  0  0  0  0
   24.5870   17.5500    2.3230 C   0  0  0  0  0  0  0  0  0  0  0  0
   24.8990   17.1130    3.6120 C   0  0  0  0  0  0  0  0  0  0  0  0
   24.5710   15.8090    4.0430 C   0  0  0  0  0  0  0  0  0  0  0  0
   25.0080   15.4150    5.3370 N   0  0  0  0  0  0  0  0  0  0  0  0
   25.9760   14.4930    5.6650 C   0  0  0  0  0  0  0  0  0  0  0  0
   26.0310   14.4390    7.0370 C   0  0  0  0  0  0  0  0  0  0  0  0
   25.0470   15.3500    7.4820 C   0  0  0  0  0  0  0  0  0  0  0  0
   24.6780   15.6940    8.8560 C   0  0  0  0  0  0  0  0  0  0  0  0
   23.5200   15.1210    9.4380 C   0  0  0  0  0  0  0  0  0  0  0  0
   23.1350   15.4340   10.7440 C   0  0  0  0  0  0  0  0  0  0  0  0
   23.9220   16.3320   11.4370 C   0  0  0  0  0  0  0  0  0  0  0  0
   25.0590   16.9170   10.8870 C   0  0  0  0  0  0  0  0  0  0  0  0
   25.4560   16.6030    9.5960 C   0  0  0  0  0  0  0  0  0  0  0  0
   25.6870   17.8360   11.8780 C   0  0  0  0  0  0  0  0  0  0  0  0
   24.7520   17.7940   12.9940 N   0  0  0  0  0  0  0  0  0  0  0  0
   25.0830   18.3920   14.2830 C   0  0  1  0  0  0  0  0  0  0  0  0
   26.3040   17.7690   14.9570 C   0  0  0  0  0  0  0  0  0  0  0  0
   26.5200   18.4230   16.3130 C   0  0  0  0  0  0  0  0  0  0  0  0
   26.6700   19.9210   16.1810 C   0  0  0  0  0  0  0  0  0  0  0  0
   27.2380   20.5990   17.0330 O   0  0  0  0  0  0  0  0  0  0  0  0
   26.0630   20.5090   15.1000 N   0  0  0  0  0  0  0  0  0  0  0  0
   25.2500   19.9150   14.1620 C   0  0  0  0  0  0  0  0  0  0  0  0
   24.6230   20.6060   13.3580 O   0  0  0  0  0  0  0  0  0  0  0  0
   23.7600   16.8440   12.8030 C   0  0  0  0  0  0  0  0  0  0  0  0
   22.9160   16.4640   13.5890 O   0  0  0  0  0  0  0  0  0  0  0  0
   24.4380   15.9240    6.4370 N   0  0  0  0  0  0  0  0  0  0  0  0
   25.3790   11.8780    4.0470 C   0  0  0  0  0  0  0  0  0  0  0  0
   25.9720   11.2160    5.0220 N   0  0  0  0  0  0  0  0  0  0  0  0
   24.7464    9.1845    8.6779 H   0  0  0  0  0  0  0  0  0  0  0  0
   23.8606    9.4192    7.1330 H   0  0  0  0  0  0  0  0  0  0  0  0
   25.4708    8.6230    7.1330 H   0  0  0  0  0  0  0  0  0  0  0  0
   25.2053   11.4186    8.2447 H   0  0  0  0  0  0  0  0  0  0  0  0
   26.6120   10.6001    7.4406 H   0  0  0  0  0  0  0  0  0  0  0  0
   23.2217   12.4320    6.4631 H   0  0  0  0  0  0  0  0  0  0  0  0
   23.0856   14.7412    1.1422 H   0  0  0  0  0  0  0  0  0  0  0  0
   23.7149   17.0342    0.4154 H   0  0  0  0  0  0  0  0  0  0  0  0
   24.8501   18.5713    2.0103 H   0  0  0  0  0  0  0  0  0  0  0  0
   25.4100   17.7977    4.3049 H   0  0  0  0  0  0  0  0  0  0  0  0
   26.5892   13.9100    4.9621 H   0  0  0  0  0  0  0  0  0  0  0  0
   26.6975   13.8199    7.6555 H   0  0  0  0  0  0  0  0  0  0  0  0
   22.9129   14.4166    8.8505 H   0  0  0  0  0  0  0  0  0  0  0  0
   22.2417   14.9835   11.2013 H   0  0  0  0  0  0  0  0  0  0  0  0
   26.3593   17.0547    9.1601 H   0  0  0  0  0  0  0  0  0  0  0  0
   26.6809   17.4740   12.1799 H   0  0  0  0  0  0  0  0  0  0  0  0
   25.8533   18.8506   11.4869 H   0  0  0  0  0  0  0  0  0  0  0  0
   24.2266   18.1742   14.9380 H   0  0  0  0  0  0  0  0  0  0  0  0
   26.1382   16.6900   15.0920 H   0  0  0  0  0  0  0  0  0  0  0  0
   27.1920   17.9262   14.3272 H   0  0  0  0  0  0  0  0  0  0  0  0
   25.6562   18.2046   16.9581 H   0  0  0  0  0  0  0  0  0  0  0  0
   27.4442   18.0182   16.7511 H   0  0  0  0  0  0  0  0  0  0  0  0
   26.2369   21.5166   14.9756 H   0  0  0  0  0  0  0  0  0  0  0  0
   25.7296   11.9059    3.0048 H   0  0  0  0  0  0  0  0  0  0  0  0
  1  2  1  0
  2  3  1  0
  3  4  2  0
  4  5  1  0
  5  6  1  0
  6  7  2  0
  6  8  2  0
  6  9  1  0
  9 10  2  0
 10 11  1  0
 11 12  2  0
 12 13  1  0
 13 14  2  0
 14 15  1  0
 15 16  1  0
 16 17  2  0
 17 18  1  0
 18 19  1  0
 19 20  2  0
 20 21  1  0
 21 22  2  0
 22 23  1  0
 23 24  2  0
 23 25  1  0
 25 26  1  0
 26 27  1  0
 27 28  1  0
 28 29  1  0
 29 30  1  0
 30 31  2  0
 30 32  1  0
 32 33  1  0
 33 34  2  0
 26 35  1  0
 35 36  2  0
 18 37  2  0
  5 38  1  0
 38 39  2  0
 39  3  1  0
 14  9  1  0
 37 15  1  0
 24 19  1  0
 33 27  1  0
 35 22  1  0
  1 40  1  0
  1 41  1  0
  1 42  1  0
  2 43  1  0
  2 44  1  0
  4 45  1  0
 10 46  1  0
 11 47  1  0
 12 48  1  0
 13 49  1  0
 16 50  1  0
 17 51  1  0
 20 52  1  0
 21 53  1  0
 24 54  1  0
 25 55  1  0
 25 56  1  0
 27 57  1  1
 28 58  1  0
 28 59  1  0
 29 60  1  0
 29 61  1  0
 32 62  1  0
 38 63  1  0
M  END
>  <meeko>  (80) 
{"is_sidechain": [true], "free_energy": -14.44, "intermolecular_energy": 0.0, "internal_energy": -14.44, "cluster_size": 14, "cluster_id": 1, "rank_in_cluster": 1}

>  <_RMSD_MCS_to_ref>  (80) 
0.4736098957299488

$$$$
ligand
     RDKit          3D

 59 64  0  0  0  0  0  0  0  0999 V2000
   24.8540    9.4020    7.6050 C   0  0  0  0  0  0  0  0  0  0  0  0
   25.5230   10.7550    7.4270 C   0  0  0  0  0  0  0  0  0  0  0  0
   27.0080   10.6500    7.4350 C   0  0  0  0  0  0  0  0  0  0  0  0
   27.9500   11.5900    7.0620 C   0  0  0  0  0  0  0  0  0  0  0  0
   29.1440   10.9820    7.3230 N   0  0  0  0  0  0  0  0  0  0  0  0
   30.6590   11.6290    7.0330 S   0  0  0  0  0  6  0  0  0  0  0  0
   30.5530   12.3200    5.7630 O   0  0  0  0  0  0  0  0  0  0  0  0
   31.6310   10.5830    7.2690 O   0  0  0  0  0  0  0  0  0  0  0  0
   31.0540   12.8960    8.1720 C   0  0  0  0  0  0  0  0  0  0  0  0
   32.3460   13.0060    8.6140 N   0  0  0  0  0  0  0  0  0  0  0  0
   32.5490   14.0220    9.4710 N   0  0  0  0  0  0  0  0  0  0  0  0
   31.3360   14.5650    9.6030 C   0  0  0  0  0  0  0  0  0  0  0  0
   30.3720   13.9080    8.8190 C   0  0  0  0  0  0  0  0  0  0  0  0
   28.9730   14.2650    8.7150 C   0  0  0  0  0  0  0  0  0  0  0  0
   27.9840   14.2800    9.6680 C   0  0  0  0  0  0  0  0  0  0  0  0
   26.8910   14.8210    9.0240 N   0  0  0  0  0  0  0  0  0  0  0  0
   25.6130   15.1400    9.5450 C   0  0  0  0  0  0  0  0  0  0  0  0
   24.4490   14.5600    9.0020 C   0  0  0  0  0  0  0  0  0  0  0  0
   23.1770   14.8560    9.5300 C   0  0  0  0  0  0  0  0  0  0  0  0
   23.0400   15.7260   10.6110 C   0  0  0  0  0  0  0  0  0  0  0  0
   24.1950   16.2830   11.1280 C   0  0  0  0  0  0  0  0  0  0  0  0
   25.4680   16.0160   10.6190 C   0  0  0  0  0  0  0  0  0  0  0  0
   26.4860   16.7440   11.4450 C   0  0  0  0  0  0  0  0  0  0  0  0
   25.6720   17.4790   12.4030 N   0  0  0  0  0  0  0  0  0  0  0  0
   26.2230   18.0790   13.6130 C   0  0  2  0  0  0  0  0  0  0  0  0
   25.6590   17.4530   14.8850 C   0  0  0  0  0  0  0  0  0  0  0  0
   26.3450   18.0670   16.0960 C   0  0  0  0  0  0  0  0  0  0  0  0
   26.2120   19.5730   16.1020 C   0  0  0  0  0  0  0  0  0  0  0  0
   26.1710   20.2240   17.1420 O   0  0  0  0  0  0  0  0  0  0  0  0
   26.1820   20.1940   14.8790 N   0  0  0  0  0  0  0  0  0  0  0  0
   25.9830   19.5990   13.6540 C   0  0  0  0  0  0  0  0  0  0  0  0
   25.6510   20.2760   12.6830 O   0  0  0  0  0  0  0  0  0  0  0  0
   24.3260   17.1790   12.2830 C   0  0  0  0  0  0  0  0  0  0  0  0
   23.4070   17.5510   12.9860 O   0  0  0  0  0  0  0  0  0  0  0  0
   27.2130   15.0600    7.7310 N   0  0  0  0  0  0  0  0  0  0  0  0
   28.4730   14.7120    7.5350 N   0  0  0  0  0  0  0  0  0  0  0  0
   28.9180    9.7180    7.7640 C   0  0  0  0  0  0  0  0  0  0  0  0
   27.6240    9.4860    7.8550 N   0  0  0  0  0  0  0  0  0  0  0  0
   24.7464    9.1845    8.6779 H   0  0  0  0  0  0  0  0  0  0  0  0
   23.8606    9.4192    7.1330 H   0  0  0  0  0  0  0  0  0  0  0  0
   25.4708    8.6230    7.1330 H   0  0  0  0  0  0  0  0  0  0  0  0
   25.2029   11.1855    6.4667 H   0  0  0  0  0  0  0  0  0  0  0  0
   25.2238   11.3948    8.2703 H   0  0  0  0  0  0  0  0  0  0  0  0
   27.7775   12.5953    6.6502 H   0  0  0  0  0  0  0  0  0  0  0  0
   33.0963   12.3664    8.3159 H   0  0  0  0  0  0  0  0  0  0  0  0
   31.1167   15.4268   10.2505 H   0  0  0  0  0  0  0  0  0  0  0  0
   28.0491   13.9373   10.7112 H   0  0  0  0  0  0  0  0  0  0  0  0
   24.5350   13.8657    8.1531 H   0  0  0  0  0  0  0  0  0  0  0  0
   22.2824   14.3960    9.0848 H   0  0  0  0  0  0  0  0  0  0  0  0
   22.0525   15.9598   11.0355 H   0  0  0  0  0  0  0  0  0  0  0  0
   27.1568   16.0382   11.9567 H   0  0  0  0  0  0  0  0  0  0  0  0
   27.1419   17.3941   10.8474 H   0  0  0  0  0  0  0  0  0  0  0  0
   27.3043   17.8805   13.5761 H   0  0  0  0  0  0  0  0  0  0  0  0
   24.5771   17.6440   14.9398 H   0  0  0  0  0  0  0  0  0  0  0  0
   25.8381   16.3678   14.8716 H   0  0  0  0  0  0  0  0  0  0  0  0
   25.8852   17.6637   17.0103 H   0  0  0  0  0  0  0  0  0  0  0  0
   27.4147   17.8146   16.0523 H   0  0  0  0  0  0  0  0  0  0  0  0
   26.3235   21.2142   14.8774 H   0  0  0  0  0  0  0  0  0  0  0  0
   29.7046    8.9898    8.0107 H   0  0  0  0  0  0  0  0  0  0  0  0
  1  2  1  0
  2  3  1  0
  3  4  2  0
  4  5  1  0
  5  6  1  0
  6  7  2  0
  6  8  2  0
  6  9  1  0
  9 10  1  0
 10 11  1  0
 11 12  2  0
 12 13  1  0
 13 14  1  0
 14 15  2  0
 15 16  1  0
 16 17  1  0
 17 18  2  0
 18 19  1  0
 19 20  2  0
 20 21  1  0
 21 22  2  0
 22 23  1  0
 23 24  1  0
 24 25  1  0
 25 26  1  0
 26 27  1  0
 27 28  1  0
 28 29  2  0
 28 30  1  0
 30 31  1  0
 31 32  2  0
 24 33  1  0
 33 34  2  0
 16 35  1  0
 35 36  2  0
  5 37  1  0
 37 38  2  0
 38  3  1  0
 13  9  2  0
 36 14  1  0
 22 17  1  0
 31 25  1  0
 33 21  1  0
  1 39  1  0
  1 40  1  0
  1 41  1  0
  2 42  1  0
  2 43  1  0
  4 44  1  0
 10 45  1  0
 12 46  1  0
 15 47  1  0
 18 48  1  0
 19 49  1  0
 20 50  1  0
 23 51  1  0
 23 52  1  0
 25 53  1  6
 26 54  1  0
 26 55  1  0
 27 56  1  0
 27 57  1  0
 30 58  1  0
 37 59  1  0
M  END
>  <meeko>  (81) 
{"is_sidechain": [true], "free_energy": -14.42, "intermolecular_energy": 0.0, "internal_energy": -14.42, "cluster_size": 20, "cluster_id": 1, "rank_in_cluster": 1}

>  <_RMSD_MCS_to_ref>  (81) 
1.1906373643277504

$$$$
ligand
     RDKit          3D

 63 68  0  0  0  0  0  0  0  0999 V2000
   24.8540    9.4020    7.6050 C   0  0  0  0  0  0  0  0  0  0  0  0
   25.5230   10.7550    7.4270 C   0  0  0  0  0  0  0  0  0  0  0  0
   24.7250   11.6670    6.5640 C   0  0  0  0  0  0  0  0  0  0  0  0
   25.0300   12.1720    5.3160 C   0  0  0  0  0  0  0  0  0  0  0  0
   23.9350   12.9170    4.9780 N   0  0  0  0  0  0  0  0  0  0  0  0
   23.7980   13.9120    3.6260 S   0  0  0  0  0  6  0  0  0  0  0  0
   22.3700   14.0770    3.4190 O   0  0  0  0  0  0  0  0  0  0  0  0
   24.6270   13.2810    2.6130 O   0  0  0  0  0  0  0  0  0  0  0  0
   24.4850   15.3410    4.0260 O   0  0  0  0  0  0  0  0  0  0  0  0
   25.3330   15.3490    5.0930 C   0  0  0  0  0  0  0  0  0  0  0  0
   24.8640   15.6740    6.3660 C   0  0  0  0  0  0  0  0  0  0  0  0
   25.7390   15.6930    7.4790 C   0  0  0  0  0  0  0  0  0  0  0  0
   25.2310   16.0160    8.8240 C   0  0  0  0  0  0  0  0  0  0  0  0
   24.0320   15.4290    9.3030 C   0  0  0  0  0  0  0  0  0  0  0  0
   23.5310   15.7180   10.5760 C   0  0  0  0  0  0  0  0  0  0  0  0
   24.2490   16.6030   11.3520 C   0  0  0  0  0  0  0  0  0  0  0  0
   25.4310   17.1960   10.9180 C   0  0  0  0  0  0  0  0  0  0  0  0
   25.9330   16.9110    9.6580 C   0  0  0  0  0  0  0  0  0  0  0  0
   25.9810   18.0760   11.9890 C   0  0  0  0  0  0  0  0  0  0  0  0
   24.9490   18.0160   13.0160 N   0  0  0  0  0  0  0  0  0  0  0  0
   25.1750   18.5650   14.3490 C   0  0  1  0  0  0  0  0  0  0  0  0
   26.3000   17.8710   15.1160 C   0  0  0  0  0  0  0  0  0  0  0  0
   26.4080   18.4770   16.5070 C   0  0  0  0  0  0  0  0  0  0  0  0
   26.6310   19.9700   16.4390 C   0  0  0  0  0  0  0  0  0  0  0  0
   27.1510   20.5960   17.3580 O   0  0  0  0  0  0  0  0  0  0  0  0
   26.1440   20.6160   15.3310 N   0  0  0  0  0  0  0  0  0  0  0  0
   25.4160   20.0810   14.2920 C   0  0  0  0  0  0  0  0  0  0  0  0
   24.9120   20.8170   13.4440 O   0  0  0  0  0  0  0  0  0  0  0  0
   23.9700   17.0810   12.7110 C   0  0  0  0  0  0  0  0  0  0  0  0
   23.0520   16.6910   13.4050 O   0  0  0  0  0  0  0  0  0  0  0  0
   27.1040   15.3930    7.2790 C   0  0  0  0  0  0  0  0  0  0  0  0
   27.5620   15.0860    6.0040 C   0  0  0  0  0  0  0  0  0  0  0  0
   26.6760   15.0740    4.9380 C   0  0  0  0  0  0  0  0  0  0  0  0
   27.4120   14.7240    3.7320 C   0  0  0  0  0  0  0  0  0  0  0  0
   26.9050   14.6340    2.6280 O   0  0  0  0  0  0  0  0  0  0  0  0
   28.8630   14.4960    4.0770 C   0  0  0  0  0  0  0  0  0  0  0  0
   28.9590   14.7390    5.5920 C   0  0  0  0  0  0  0  0  0  0  0  0
   23.0660   12.9260    6.0210 C   0  0  0  0  0  0  0  0  0  0  0  0
   23.5010   12.1440    6.9890 N   0  0  0  0  0  0  0  0  0  0  0  0
   24.7464    9.1845    8.6779 H   0  0  0  0  0  0  0  0  0  0  0  0
   23.8606    9.4192    7.1330 H   0  0  0  0  0  0  0  0  0  0  0  0
   25.4708    8.6230    7.1330 H   0  0  0  0  0  0  0  0  0  0  0  0
   25.6476   11.2214    8.4154 H   0  0  0  0  0  0  0  0  0  0  0  0
   26.4939   10.5899    6.9371 H   0  0  0  0  0  0  0  0  0  0  0  0
   25.9455   12.0115    4.7277 H   0  0  0  0  0  0  0  0  0  0  0  0
   23.8008   15.9186    6.5069 H   0  0  0  0  0  0  0  0  0  0  0  0
   23.4824   14.7288    8.6568 H   0  0  0  0  0  0  0  0  0  0  0  0
   22.6018   15.2580   10.9434 H   0  0  0  0  0  0  0  0  0  0  0  0
   26.8676   17.3771    9.3126 H   0  0  0  0  0  0  0  0  0  0  0  0
   26.9391   17.6894   12.3667 H   0  0  0  0  0  0  0  0  0  0  0  0
   26.1954   19.0988   11.6456 H   0  0  0  0  0  0  0  0  0  0  0  0
   24.2501   18.3688   14.9112 H   0  0  0  0  0  0  0  0  0  0  0  0
   26.0796   16.7965   15.1993 H   0  0  0  0  0  0  0  0  0  0  0  0
   27.2506   18.0075   14.5796 H   0  0  0  0  0  0  0  0  0  0  0  0
   25.4768   18.2784   17.0578 H   0  0  0  0  0  0  0  0  0  0  0  0
   27.2677   18.0203   17.0192 H   0  0  0  0  0  0  0  0  0  0  0  0
   26.3477   21.6237   15.2688 H   0  0  0  0  0  0  0  0  0  0  0  0
   27.8019   15.4023    8.1292 H   0  0  0  0  0  0  0  0  0  0  0  0
   29.1607   13.4658    3.8318 H   0  0  0  0  0  0  0  0  0  0  0  0
   29.5303   15.1620    3.5103 H   0  0  0  0  0  0  0  0  0  0  0  0
   29.3036   13.8321    6.1104 H   0  0  0  0  0  0  0  0  0  0  0  0
   29.6791   15.5314    5.8442 H   0  0  0  0  0  0  0  0  0  0  0  0
   22.1308   13.5043    6.0537 H   0  0  0  0  0  0  0  0  0  0  0  0
  1  2  1  0
  2  3  1  0
  3  4  2  0
  4  5  1  0
  5  6  1  0
  6  7  2  0
  6  8  2  0
  6  9  1  0
  9 10  1  0
 10 11  2  0
 11 12  1  0
 12 13  1  0
 13 14  2  0
 14 15  1  0
 15 16  2  0
 16 17  1  0
 17 18  2  0
 17 19  1  0
 19 20  1  0
 20 21  1  0
 21 22  1  0
 22 23  1  0
 23 24  1  0
 24 25  2  0
 24 26  1  0
 26 27  1  0
 27 28  2  0
 20 29  1  0
 29 30  2  0
 12 31  2  0
 31 32  1  0
 32 33  2  0
 33 34  1  0
 34 35  2  0
 34 36  1  0
 36 37  1  0
  5 38  1  0
 38 39  2  0
 39  3  1  0
 33 10  1  0
 18 13  1  0
 27 21  1  0
 37 32  1  0
 29 16  1  0
  1 40  1  0
  1 41  1  0
  1 42  1  0
  2 43  1  0
  2 44  1  0
  4 45  1  0
 11 46  1  0
 14 47  1  0
 15 48  1  0
 18 49  1  0
 19 50  1  0
 19 51  1  0
 21 52  1  1
 22 53  1  0
 22 54  1  0
 23 55  1  0
 23 56  1  0
 26 57  1  0
 31 58  1  0
 36 59  1  0
 36 60  1  0
 37 61  1  0
 37 62  1  0
 38 63  1  0
M  END
>  <meeko>  (82) 
{"is_sidechain": [true], "free_energy": -14.42, "intermolecular_energy": 0.0, "internal_energy": -14.42, "cluster_size": 16, "cluster_id": 1, "rank_in_cluster": 1}

>  <_RMSD_MCS_to_ref>  (82) 
0.45326519095705187

$$$$
ligand
     RDKit          3D

 56 60  0  0  0  0  0  0  0  0999 V2000
   24.8540    9.4020    7.6050 C   0  0  0  0  0  0  0  0  0  0  0  0
   25.5230   10.7550    7.4270 C   0  0  0  0  0  0  0  0  0  0  0  0
   26.9900   10.6930    7.6680 C   0  0  0  0  0  0  0  0  0  0  0  0
   27.8460   11.6960    8.0770 C   0  0  0  0  0  0  0  0  0  0  0  0
   29.0680   11.0890    8.1330 N   0  0  0  0  0  0  0  0  0  0  0  0
   30.5150   11.8360    8.5670 S   0  0  0  0  0  6  0  0  0  0  0  0
   30.8390   12.7580    7.4920 O   0  0  0  0  0  0  0  0  0  0  0  0
   31.3990   10.7200    8.8610 O   0  0  0  0  0  0  0  0  0  0  0  0
   30.3070   12.6580    9.9560 O   0  0  0  0  0  0  0  0  0  0  0  0
   29.7050   13.8890    9.9330 C   0  0  0  0  0  0  0  0  0  0  0  0
   28.3290   13.9270   10.0860 C   0  0  0  0  0  0  0  0  0  0  0  0
   27.6790   15.1640   10.0340 C   0  0  0  0  0  0  0  0  0  0  0  0
   26.2280   15.2620   10.2110 C   0  0  0  0  0  0  0  0  0  0  0  0
   25.3450   14.5850    9.3460 C   0  0  0  0  0  0  0  0  0  0  0  0
   23.9470   14.6560    9.5070 C   0  0  0  0  0  0  0  0  0  0  0  0
   23.3920   15.4130   10.5360 C   0  0  0  0  0  0  0  0  0  0  0  0
   24.2660   16.0810   11.3710 C   0  0  0  0  0  0  0  0  0  0  0  0
   25.6530   16.0190   11.2280 C   0  0  0  0  0  0  0  0  0  0  0  0
   26.3000   16.8440   12.2930 C   0  0  0  0  0  0  0  0  0  0  0  0
   25.1640   17.4460   12.9770 N   0  0  0  0  0  0  0  0  0  0  0  0
   25.3330   18.1450   14.2470 C   0  0  1  0  0  0  0  0  0  0  0  0
   26.4770   17.6020   15.1040 C   0  0  0  0  0  0  0  0  0  0  0  0
   26.5210   18.3600   16.4230 C   0  0  0  0  0  0  0  0  0  0  0  0
   26.6650   19.8460   16.1960 C   0  0  0  0  0  0  0  0  0  0  0  0
   27.1380   20.5940   17.0460 O   0  0  0  0  0  0  0  0  0  0  0  0
   26.1620   20.3410   15.0190 N   0  0  0  0  0  0  0  0  0  0  0  0
   25.4930   19.6580   14.0300 C   0  0  0  0  0  0  0  0  0  0  0  0
   24.9750   20.2670   13.0940 O   0  0  0  0  0  0  0  0  0  0  0  0
   23.9580   16.9390   12.5200 C   0  0  0  0  0  0  0  0  0  0  0  0
   22.8420   17.1220   12.9640 O   0  0  0  0  0  0  0  0  0  0  0  0
   28.4530   16.3060    9.8070 C   0  0  0  0  0  0  0  0  0  0  0  0
   29.8210   16.1640    9.6510 C   0  0  0  0  0  0  0  0  0  0  0  0
   30.4610   14.9770    9.7080 N   0  0  0  0  0  0  0  0  0  0  0  0
   28.9390    9.7870    7.7700 C   0  0  0  0  0  0  0  0  0  0  0  0
   27.6830    9.5110    7.4820 N   0  0  0  0  0  0  0  0  0  0  0  0
   24.7464    9.1845    8.6779 H   0  0  0  0  0  0  0  0  0  0  0  0
   23.8606    9.4192    7.1330 H   0  0  0  0  0  0  0  0  0  0  0  0
   25.4708    8.6230    7.1330 H   0  0  0  0  0  0  0  0  0  0  0  0
   25.3474   11.1044    6.3989 H   0  0  0  0  0  0  0  0  0  0  0  0
   25.0887   11.4460    8.1645 H   0  0  0  0  0  0  0  0  0  0  0  0
   27.6001   12.7436    8.3053 H   0  0  0  0  0  0  0  0  0  0  0  0
   27.7577   13.0007   10.2456 H   0  0  0  0  0  0  0  0  0  0  0  0
   25.7587   13.9846    8.5224 H   0  0  0  0  0  0  0  0  0  0  0  0
   23.2892   14.1096    8.8150 H   0  0  0  0  0  0  0  0  0  0  0  0
   22.3030   15.4762   10.6777 H   0  0  0  0  0  0  0  0  0  0  0  0
   26.8863   16.2149   12.9789 H   0  0  0  0  0  0  0  0  0  0  0  0
   27.0093   17.5852   11.8960 H   0  0  0  0  0  0  0  0  0  0  0  0
   24.4088   17.9562   14.8128 H   0  0  0  0  0  0  0  0  0  0  0  0
   26.3132   16.5321   15.3003 H   0  0  0  0  0  0  0  0  0  0  0  0
   27.4306   17.7332   14.5716 H   0  0  0  0  0  0  0  0  0  0  0  0
   25.5896   18.1705   16.9767 H   0  0  0  0  0  0  0  0  0  0  0  0
   27.3920   18.0098   16.9964 H   0  0  0  0  0  0  0  0  0  0  0  0
   26.3028   21.3482   14.8561 H   0  0  0  0  0  0  0  0  0  0  0  0
   27.9834   17.2993    9.7534 H   0  0  0  0  0  0  0  0  0  0  0  0
   30.4199   17.0689    9.4705 H   0  0  0  0  0  0  0  0  0  0  0  0
   29.7667    9.0640    7.7229 H   0  0  0  0  0  0  0  0  0  0  0  0
  1  2  1  0
  2  3  1  0
  3  4  2  0
  4  5  1  0
  5  6  1  0
  6  7  2  0
  6  8  2  0
  6  9  1  0
  9 10  1  0
 10 11  2  0
 11 12  1  0
 12 13  1  0
 13 14  2  0
 14 15  1  0
 15 16  2  0
 16 17  1  0
 17 18  2  0
 18 19  1  0
 19 20  1  0
 20 21  1  0
 21 22  1  0
 22 23  1  0
 23 24  1  0
 24 25  2  0
 24 26  1  0
 26 27  1  0
 27 28  2  0
 20 29  1  0
 29 30  2  0
 12 31  2  0
 31 32  1  0
 32 33  2  0
  5 34  1  0
 34 35  2  0
 35  3  1  0
 33 10  1  0
 18 13  1  0
 27 21  1  0
 29 17  1  0
  1 36  1  0
  1 37  1  0
  1 38  1  0
  2 39  1  0
  2 40  1  0
  4 41  1  0
 11 42  1  0
 14 43  1  0
 15 44  1  0
 16 45  1  0
 19 46  1  0
 19 47  1  0
 21 48  1  1
 22 49  1  0
 22 50  1  0
 23 51  1  0
 23 52  1  0
 26 53  1  0
 31 54  1  0
 32 55  1  0
 34 56  1  0
M  END
>  <meeko>  (83) 
{"is_sidechain": [true], "free_energy": -14.41, "intermolecular_energy": 0.0, "internal_energy": -14.41, "cluster_size": 20, "cluster_id": 1, "rank_in_cluster": 1}

>  <_RMSD_MCS_to_ref>  (83) 
0.5946853509770239

$$$$
ligand
     RDKit          3D

 62 67  0  0  0  0  0  0  0  0999 V2000
   24.8540    9.4020    7.6050 C   0  0  0  0  0  0  0  0  0  0  0  0
   25.5230   10.7550    7.4270 C   0  0  0  0  0  0  0  0  0  0  0  0
   25.2930   11.3220    6.0710 C   0  0  0  0  0  0  0  0  0  0  0  0
   26.2200   11.6780    5.1110 C   0  0  0  0  0  0  0  0  0  0  0  0
   25.4660   12.1360    4.0690 N   0  0  0  0  0  0  0  0  0  0  0  0
   26.0600   12.9650    2.7210 S   0  0  0  0  0  6  0  0  0  0  0  0
   27.1540   12.1370    2.2500 O   0  0  0  0  0  0  0  0  0  0  0  0
   24.8990   13.2170    1.8880 O   0  0  0  0  0  0  0  0  0  0  0  0
   26.6910   14.3920    3.2290 O   0  0  0  0  0  0  0  0  0  0  0  0
   26.1100   15.0340    4.2950 C   0  0  0  0  0  0  0  0  0  0  0  0
   25.0520   15.9120    4.0660 C   0  0  0  0  0  0  0  0  0  0  0  0
   24.4270   16.5210    5.1450 C   0  0  0  0  0  0  0  0  0  0  0  0
   24.8640   16.2550    6.4450 C   0  0  0  0  0  0  0  0  0  0  0  0
   25.9550   15.3920    6.7060 C   0  0  0  0  0  0  0  0  0  0  0  0
   26.4260   15.0980    8.0130 C   0  0  0  0  0  0  0  0  0  0  0  0
   25.7940   15.6210    9.2320 C   0  0  0  0  0  0  0  0  0  0  0  0
   24.4690   15.2500    9.5670 C   0  0  0  0  0  0  0  0  0  0  0  0
   23.8510   15.7310   10.7240 C   0  0  0  0  0  0  0  0  0  0  0  0
   24.5830   16.5870   11.5240 C   0  0  0  0  0  0  0  0  0  0  0  0
   25.8860   16.9710   11.2210 C   0  0  0  0  0  0  0  0  0  0  0  0
   26.5050   16.4960   10.0780 C   0  0  0  0  0  0  0  0  0  0  0  0
   26.4120   17.8700   12.2890 C   0  0  0  0  0  0  0  0  0  0  0  0
   25.2550   18.0480   13.1560 N   0  0  0  0  0  0  0  0  0  0  0  0
   25.3810   18.6830   14.4640 C   0  0  1  0  0  0  0  0  0  0  0  0
   26.4510   18.0550   15.3550 C   0  0  0  0  0  0  0  0  0  0  0  0
   26.4540   18.7490   16.7080 C   0  0  0  0  0  0  0  0  0  0  0  0
   26.6690   20.2380   16.5580 C   0  0  0  0  0  0  0  0  0  0  0  0
   27.1170   20.9270   17.4690 O   0  0  0  0  0  0  0  0  0  0  0  0
   26.2580   20.8050   15.3790 N   0  0  0  0  0  0  0  0  0  0  0  0
   25.6140   20.1960   14.3260 C   0  0  0  0  0  0  0  0  0  0  0  0
   25.1710   20.8690   13.3950 O   0  0  0  0  0  0  0  0  0  0  0  0
   24.1990   17.2280   12.7860 C   0  0  0  0  0  0  0  0  0  0  0  0
   23.1510   17.0330   13.3690 O   0  0  0  0  0  0  0  0  0  0  0  0
   27.5320   14.2530    8.1300 C   0  0  0  0  0  0  0  0  0  0  0  0
   28.1870   13.6940    7.0920 N   0  0  0  0  0  0  0  0  0  0  0  0
   27.7110   13.9820    5.8630 C   0  0  0  0  0  0  0  0  0  0  0  0
   26.6020   14.7970    5.5990 C   0  0  0  0  0  0  0  0  0  0  0  0
   24.1530   12.0920    4.4170 C   0  0  0  0  0  0  0  0  0  0  0  0
   24.0120   11.5850    5.6250 N   0  0  0  0  0  0  0  0  0  0  0  0
   24.7464    9.1845    8.6779 H   0  0  0  0  0  0  0  0  0  0  0  0
   23.8606    9.4192    7.1330 H   0  0  0  0  0  0  0  0  0  0  0  0
   25.4708    8.6230    7.1330 H   0  0  0  0  0  0  0  0  0  0  0  0
   25.1178   11.4517    8.1756 H   0  0  0  0  0  0  0  0  0  0  0  0
   26.6065   10.6152    7.5551 H   0  0  0  0  0  0  0  0  0  0  0  0
   27.3161   11.6084    5.1721 H   0  0  0  0  0  0  0  0  0  0  0  0
   24.7156   16.1202    3.0396 H   0  0  0  0  0  0  0  0  0  0  0  0
   23.5883   17.2125    4.9769 H   0  0  0  0  0  0  0  0  0  0  0  0
   24.3450   16.7302    7.2905 H   0  0  0  0  0  0  0  0  0  0  0  0
   23.9154   14.5697    8.9031 H   0  0  0  0  0  0  0  0  0  0  0  0
   22.8234   15.4400   10.9873 H   0  0  0  0  0  0  0  0  0  0  0  0
   27.5347   16.7963    9.8338 H   0  0  0  0  0  0  0  0  0  0  0  0
   27.2447   17.3976   12.8307 H   0  0  0  0  0  0  0  0  0  0  0  0
   26.8176   18.8166   11.9023 H   0  0  0  0  0  0  0  0  0  0  0  0
   24.4196   18.5096   14.9696 H   0  0  0  0  0  0  0  0  0  0  0  0
   26.2331   16.9855   15.4918 H   0  0  0  0  0  0  0  0  0  0  0  0
   27.4370   18.1702   14.8812 H   0  0  0  0  0  0  0  0  0  0  0  0
   25.4874   18.5741   17.2032 H   0  0  0  0  0  0  0  0  0  0  0  0
   27.2778   18.3368   17.3092 H   0  0  0  0  0  0  0  0  0  0  0  0
   26.4554   21.8098   15.2678 H   0  0  0  0  0  0  0  0  0  0  0  0
   27.8955   14.0268    9.1433 H   0  0  0  0  0  0  0  0  0  0  0  0
   28.2342   13.5428    5.0008 H   0  0  0  0  0  0  0  0  0  0  0  0
   23.3238   12.4321    3.7793 H   0  0  0  0  0  0  0  0  0  0  0  0
  1  2  1  0
  2  3  1  0
  3  4  2  0
  4  5  1  0
  5  6  1  0
  6  7  2  0
  6  8  2  0
  6  9  1  0
  9 10  1  0
 10 11  2  0
 11 12  1  0
 12 13  2  0
 13 14  1  0
 14 15  2  0
 15 16  1  0
 16 17  2  0
 17 18  1  0
 18 19  2  0
 19 20  1  0
 20 21  2  0
 20 22  1  0
 22 23  1  0
 23 24  1  0
 24 25  1  0
 25 26  1  0
 26 27  1  0
 27 28  2  0
 27 29  1  0
 29 30  1  0
 30 31  2  0
 23 32  1  0
 32 33  2  0
 15 34  1  0
 34 35  2  0
 35 36  1  0
 36 37  2  0
  5 38  1  0
 38 39  2  0
 39  3  1  0
 37 10  1  0
 37 14  1  0
 21 16  1  0
 30 24  1  0
 32 19  1  0
  1 40  1  0
  1 41  1  0
  1 42  1  0
  2 43  1  0
  2 44  1  0
  4 45  1  0
 11 46  1  0
 12 47  1  0
 13 48  1  0
 17 49  1  0
 18 50  1  0
 21 51  1  0
 22 52  1  0
 22 53  1  0
 24 54  1  1
 25 55  1  0
 25 56  1  0
 26 57  1  0
 26 58  1  0
 29 59  1  0
 34 60  1  0
 36 61  1  0
 38 62  1  0
M  END
>  <meeko>  (84) 
{"is_sidechain": [true], "free_energy": -14.41, "intermolecular_energy": 0.0, "internal_energy": -14.41, "cluster_size": 17, "cluster_id": 1, "rank_in_cluster": 1}

>  <_RMSD_MCS_to_ref>  (84) 
0.5797327928546996

$$$$
ligand
     RDKit          3D

 62 67  0  0  0  0  0  0  0  0999 V2000
   24.8540    9.4020    7.6050 C   0  0  0  0  0  0  0  0  0  0  0  0
   25.5230   10.7550    7.4270 C   0  0  0  0  0  0  0  0  0  0  0  0
   26.9700   10.6280    7.1030 C   0  0  0  0  0  0  0  0  0  0  0  0
   27.6630   11.1140    6.0110 C   0  0  0  0  0  0  0  0  0  0  0  0
   28.9560   10.7400    6.2420 N   0  0  0  0  0  0  0  0  0  0  0  0
   30.2230   10.8460    5.1360 S   0  0  0  0  0  6  0  0  0  0  0  0
   29.7140   10.2170    3.9300 O   0  0  0  0  0  0  0  0  0  0  0  0
   31.3740   10.3130    5.8400 O   0  0  0  0  0  0  0  0  0  0  0  0
   30.4470   12.4370    4.8620 O   0  0  0  0  0  0  0  0  0  0  0  0
   29.4930   13.3780    5.1460 C   0  0  0  0  0  0  0  0  0  0  0  0
   29.0380   14.1090    4.0510 C   0  0  0  0  0  0  0  0  0  0  0  0
   28.0630   15.0970    4.2170 C   0  0  0  0  0  0  0  0  0  0  0  0
   27.5200   15.3810    5.4610 C   0  0  0  0  0  0  0  0  0  0  0  0
   26.5860   16.3380    5.5710 N   0  0  0  0  0  0  0  0  0  0  0  0
   26.0770   16.5870    6.8030 C   0  0  0  0  0  0  0  0  0  0  0  0
   26.4460   15.9230    7.9690 C   0  0  0  0  0  0  0  0  0  0  0  0
   25.8510   16.2490    9.2730 C   0  0  0  0  0  0  0  0  0  0  0  0
   24.6440   15.6290    9.6880 C   0  0  0  0  0  0  0  0  0  0  0  0
   24.0590   15.9190   10.9240 C   0  0  0  0  0  0  0  0  0  0  0  0
   24.7000   16.8390   11.7290 C   0  0  0  0  0  0  0  0  0  0  0  0
   25.8840   17.4660   11.3550 C   0  0  0  0  0  0  0  0  0  0  0  0
   26.4720   17.1790   10.1330 C   0  0  0  0  0  0  0  0  0  0  0  0
   26.3380   18.3820   12.4400 C   0  0  0  0  0  0  0  0  0  0  0  0
   25.2500   18.3030   13.4050 N   0  0  0  0  0  0  0  0  0  0  0  0
   25.3770   18.8800   14.7380 C   0  0  1  0  0  0  0  0  0  0  0  0
   26.4390   18.2030   15.6040 C   0  0  0  0  0  0  0  0  0  0  0  0
   26.4440   18.8400   16.9850 C   0  0  0  0  0  0  0  0  0  0  0  0
   26.6740   20.3310   16.9010 C   0  0  0  0  0  0  0  0  0  0  0  0
   27.1220   20.9770   17.8440 O   0  0  0  0  0  0  0  0  0  0  0  0
   26.2770   20.9520   15.7430 N   0  0  0  0  0  0  0  0  0  0  0  0
   25.6240   20.3950   14.6670 C   0  0  0  0  0  0  0  0  0  0  0  0
   25.1830   21.1130   13.7690 O   0  0  0  0  0  0  0  0  0  0  0  0
   24.3240   17.3290   13.0590 C   0  0  0  0  0  0  0  0  0  0  0  0
   23.3810   16.9170   13.7060 O   0  0  0  0  0  0  0  0  0  0  0  0
   27.4210   14.9300    7.8270 C   0  0  0  0  0  0  0  0  0  0  0  0
   27.9770   14.6400    6.5690 C   0  0  0  0  0  0  0  0  0  0  0  0
   28.9580   13.6420    6.4070 C   0  0  0  0  0  0  0  0  0  0  0  0
   29.0080    9.9930    7.3730 C   0  0  0  0  0  0  0  0  0  0  0  0
   27.8190    9.9260    7.9360 N   0  0  0  0  0  0  0  0  0  0  0  0
   24.7464    9.1845    8.6779 H   0  0  0  0  0  0  0  0  0  0  0  0
   23.8606    9.4192    7.1330 H   0  0  0  0  0  0  0  0  0  0  0  0
   25.4708    8.6230    7.1330 H   0  0  0  0  0  0  0  0  0  0  0  0
   25.0225   11.2928    6.6083 H   0  0  0  0  0  0  0  0  0  0  0  0
   25.4363   11.3024    8.3772 H   0  0  0  0  0  0  0  0  0  0  0  0
   27.2645   11.6740    5.1521 H   0  0  0  0  0  0  0  0  0  0  0  0
   29.4481   13.9078    3.0503 H   0  0  0  0  0  0  0  0  0  0  0  0
   27.7180   15.6631    3.3392 H   0  0  0  0  0  0  0  0  0  0  0  0
   25.3136   17.3745    6.8872 H   0  0  0  0  0  0  0  0  0  0  0  0
   24.1569   14.9026    9.0209 H   0  0  0  0  0  0  0  0  0  0  0  0
   23.1248   15.4333   11.2425 H   0  0  0  0  0  0  0  0  0  0  0  0
   27.4109   17.6702    9.8376 H   0  0  0  0  0  0  0  0  0  0  0  0
   27.2845   18.0357   12.8807 H   0  0  0  0  0  0  0  0  0  0  0  0
   26.5370   19.4059   12.0908 H   0  0  0  0  0  0  0  0  0  0  0  0
   24.4120   18.6951   15.2326 H   0  0  0  0  0  0  0  0  0  0  0  0
   26.2100   17.1309   15.6949 H   0  0  0  0  0  0  0  0  0  0  0  0
   27.4277   18.3270   15.1380 H   0  0  0  0  0  0  0  0  0  0  0  0
   25.4739   18.6538   17.4690 H   0  0  0  0  0  0  0  0  0  0  0  0
   27.2625   18.3948   17.5697 H   0  0  0  0  0  0  0  0  0  0  0  0
   26.4940   21.9563   15.6705 H   0  0  0  0  0  0  0  0  0  0  0  0
   27.7570   14.3688    8.7114 H   0  0  0  0  0  0  0  0  0  0  0  0
   29.3039   13.0680    7.2793 H   0  0  0  0  0  0  0  0  0  0  0  0
   29.9157    9.5108    7.7650 H   0  0  0  0  0  0  0  0  0  0  0  0
  1  2  1  0
  2  3  1  0
  3  4  2  0
  4  5  1  0
  5  6  1  0
  6  7  2  0
  6  8  2  0
  6  9  1  0
  9 10  1  0
 10 11  2  0
 11 12  1  0
 12 13  2  0
 13 14  1  0
 14 15  2  0
 15 16  1  0
 16 17  1  0
 17 18  2  0
 18 19  1  0
 19 20  2  0
 20 21  1  0
 21 22  2  0
 21 23  1  0
 23 24  1  0
 24 25  1  0
 25 26  1  0
 26 27  1  0
 27 28  1  0
 28 29  2  0
 28 30  1  0
 30 31  1  0
 31 32  2  0
 24 33  1  0
 33 34  2  0
 16 35  2  0
 35 36  1  0
 36 37  2  0
  5 38  1  0
 38 39  2  0
 39  3  1  0
 37 10  1  0
 36 13  1  0
 22 17  1  0
 31 25  1  0
 33 20  1  0
  1 40  1  0
  1 41  1  0
  1 42  1  0
  2 43  1  0
  2 44  1  0
  4 45  1  0
 11 46  1  0
 12 47  1  0
 15 48  1  0
 18 49  1  0
 19 50  1  0
 22 51  1  0
 23 52  1  0
 23 53  1  0
 25 54  1  1
 26 55  1  0
 26 56  1  0
 27 57  1  0
 27 58  1  0
 30 59  1  0
 35 60  1  0
 37 61  1  0
 38 62  1  0
M  END
>  <meeko>  (85) 
{"is_sidechain": [true], "free_energy": -14.41, "intermolecular_energy": 0.0, "internal_energy": -14.41, "cluster_size": 20, "cluster_id": 1, "rank_in_cluster": 1}

>  <_RMSD_MCS_to_ref>  (85) 
0.7183836022627458

$$$$
ligand
     RDKit          3D

 60 65  0  0  0  0  0  0  0  0999 V2000
   24.8540    9.4020    7.6050 C   0  0  0  0  0  0  0  0  0  0  0  0
   25.5230   10.7550    7.4270 C   0  0  0  0  0  0  0  0  0  0  0  0
   27.0070   10.6530    7.4410 C   0  0  0  0  0  0  0  0  0  0  0  0
   27.9440   11.5730    7.0120 C   0  0  0  0  0  0  0  0  0  0  0  0
   29.1420   10.9570    7.2300 N   0  0  0  0  0  0  0  0  0  0  0  0
   30.6750   11.5190    6.7980 S   0  0  0  0  0  6  0  0  0  0  0  0
   31.5860   10.4140    7.0350 O   0  0  0  0  0  0  0  0  0  0  0  0
   30.4800   12.0370    5.4530 O   0  0  0  0  0  0  0  0  0  0  0  0
   31.0760   12.7790    7.7500 O   0  0  0  0  0  0  0  0  0  0  0  0
   30.1380   13.5090    8.3680 C   0  0  0  0  0  0  0  0  0  0  0  0
   30.2870   14.8580    8.5860 C   0  0  0  0  0  0  0  0  0  0  0  0
   29.1110   15.2620    9.1630 N   0  0  0  0  0  0  0  0  0  0  0  0
   28.6970   16.5300    9.5550 C   0  0  0  0  0  0  0  0  0  0  0  0
   27.4650   16.6850   10.0710 C   0  0  0  0  0  0  0  0  0  0  0  0
   26.5870   15.5190   10.2130 C   0  0  0  0  0  0  0  0  0  0  0  0
   25.2130   15.6300   10.7310 C   0  0  0  0  0  0  0  0  0  0  0  0
   24.1540   14.9570   10.0990 C   0  0  0  0  0  0  0  0  0  0  0  0
   22.8370   15.0440   10.5910 C   0  0  0  0  0  0  0  0  0  0  0  0
   22.5520   15.8040   11.7240 C   0  0  0  0  0  0  0  0  0  0  0  0
   23.6060   16.4590   12.3310 C   0  0  0  0  0  0  0  0  0  0  0  0
   24.9170   16.3830   11.8610 C   0  0  0  0  0  0  0  0  0  0  0  0
   25.8170   17.1690   12.7570 C   0  0  0  0  0  0  0  0  0  0  0  0
   24.8860   17.7910   13.6870 N   0  0  0  0  0  0  0  0  0  0  0  0
   25.3620   18.4980   14.8710 C   0  0  1  0  0  0  0  0  0  0  0  0
   26.5490   17.8210   15.5550 C   0  0  0  0  0  0  0  0  0  0  0  0
   26.9250   18.6050   16.8030 C   0  0  0  0  0  0  0  0  0  0  0  0
   27.2320   20.0460   16.4730 C   0  0  0  0  0  0  0  0  0  0  0  0
   27.9470   20.7440   17.1870 O   0  0  0  0  0  0  0  0  0  0  0  0
   26.6070   20.5730   15.3710 N   0  0  0  0  0  0  0  0  0  0  0  0
   25.6880   19.9650   14.5470 C   0  0  0  0  0  0  0  0  0  0  0  0
   25.1050   20.6140   13.6790 O   0  0  0  0  0  0  0  0  0  0  0  0
   23.5960   17.3120   13.5250 C   0  0  0  0  0  0  0  0  0  0  0  0
   22.6190   17.5180   14.2180 O   0  0  0  0  0  0  0  0  0  0  0  0
   27.0220   14.2900    9.8490 C   0  0  0  0  0  0  0  0  0  0  0  0
   28.3190   14.1270    9.2870 C   0  0  0  0  0  0  0  0  0  0  0  0
   28.9280   13.0620    8.8120 N   0  0  0  0  0  0  0  0  0  0  0  0
   28.9220    9.7310    7.7730 C   0  0  0  0  0  0  0  0  0  0  0  0
   27.6300    9.5130    7.9150 N   0  0  0  0  0  0  0  0  0  0  0  0
   24.7464    9.1845    8.6779 H   0  0  0  0  0  0  0  0  0  0  0  0
   23.8606    9.4192    7.1330 H   0  0  0  0  0  0  0  0  0  0  0  0
   25.4708    8.6230    7.1330 H   0  0  0  0  0  0  0  0  0  0  0  0
   25.2062   11.1832    6.4646 H   0  0  0  0  0  0  0  0  0  0  0  0
   25.2201   11.3954    8.2685 H   0  0  0  0  0  0  0  0  0  0  0  0
   27.7653   12.5734    6.5909 H   0  0  0  0  0  0  0  0  0  0  0  0
   31.1625   15.4801    8.3483 H   0  0  0  0  0  0  0  0  0  0  0  0
   29.3681   17.3946    9.4446 H   0  0  0  0  0  0  0  0  0  0  0  0
   27.1178   17.6805   10.3847 H   0  0  0  0  0  0  0  0  0  0  0  0
   24.3570   14.3511    9.2036 H   0  0  0  0  0  0  0  0  0  0  0  0
   22.0263   14.5074   10.0764 H   0  0  0  0  0  0  0  0  0  0  0  0
   21.5282   15.8793   12.1193 H   0  0  0  0  0  0  0  0  0  0  0  0
   26.5234   16.5111   13.2845 H   0  0  0  0  0  0  0  0  0  0  0  0
   26.4422   17.8951   12.2167 H   0  0  0  0  0  0  0  0  0  0  0  0
   24.5315   18.4646   15.5915 H   0  0  0  0  0  0  0  0  0  0  0  0
   26.2742   16.7935   15.8356 H   0  0  0  0  0  0  0  0  0  0  0  0
   27.4053   17.7942   14.8651 H   0  0  0  0  0  0  0  0  0  0  0  0
   26.0863   18.5709   17.5140 H   0  0  0  0  0  0  0  0  0  0  0  0
   27.8252   18.1495   17.2415 H   0  0  0  0  0  0  0  0  0  0  0  0
   26.8565   21.5431   15.1311 H   0  0  0  0  0  0  0  0  0  0  0  0
   26.3708   13.4145    9.9881 H   0  0  0  0  0  0  0  0  0  0  0  0
   29.7122    9.0195    8.0548 H   0  0  0  0  0  0  0  0  0  0  0  0
  1  2  1  0
  2  3  1  0
  3  4  2  0
  4  5  1  0
  5  6  1  0
  6  7  2  0
  6  8  2  0
  6  9  1  0
  9 10  1  0
 10 11  2  0
 11 12  1  0
 12 13  1  0
 13 14  2  0
 14 15  1  0
 15 16  1  0
 16 17  2  0
 17 18  1  0
 18 19  2  0
 19 20  1  0
 20 21  2  0
 21 22  1  0
 22 23  1  0
 23 24  1  0
 24 25  1  0
 25 26  1  0
 26 27  1  0
 27 28  2  0
 27 29  1  0
 29 30  1  0
 30 31  2  0
 23 32  1  0
 32 33  2  0
 15 34  2  0
 34 35  1  0
 35 36  2  0
  5 37  1  0
 37 38  2  0
 38  3  1  0
 36 10  1  0
 35 12  1  0
 21 16  1  0
 30 24  1  0
 32 20  1  0
  1 39  1  0
  1 40  1  0
  1 41  1  0
  2 42  1  0
  2 43  1  0
  4 44  1  0
 11 45  1  0
 13 46  1  0
 14 47  1  0
 17 48  1  0
 18 49  1  0
 19 50  1  0
 22 51  1  0
 22 52  1  0
 24 53  1  1
 25 54  1  0
 25 55  1  0
 26 56  1  0
 26 57  1  0
 29 58  1  0
 34 59  1  0
 37 60  1  0
M  END
>  <meeko>  (86) 
{"is_sidechain": [true], "free_energy": -14.37, "intermolecular_energy": 0.0, "internal_energy": -14.37, "cluster_size": 16, "cluster_id": 1, "rank_in_cluster": 1}

>  <_RMSD_MCS_to_ref>  (86) 
0.5266295345559967

$$$$
ligand
     RDKit          3D

 64 69  0  0  0  0  0  0  0  0999 V2000
   24.8540    9.4020    7.6050 C   0  0  0  0  0  0  0  0  0  0  0  0
   25.5230   10.7550    7.4270 C   0  0  0  0  0  0  0  0  0  0  0  0
   25.2160   11.3660    6.1050 C   0  0  0  0  0  0  0  0  0  0  0  0
   24.0520   11.9710    5.6770 C   0  0  0  0  0  0  0  0  0  0  0  0
   24.3140   12.3230    4.3830 N   0  0  0  0  0  0  0  0  0  0  0  0
   23.3210   13.2510    3.3970 S   0  0  0  0  0  6  0  0  0  0  0  0
   23.6460   12.8720    2.0350 O   0  0  0  0  0  0  0  0  0  0  0  0
   21.9830   13.1070    3.9370 O   0  0  0  0  0  0  0  0  0  0  0  0
   23.8670   14.8980    3.6800 C   0  0  0  0  0  0  0  0  0  0  0  0
   23.3540   15.9670    2.9350 C   0  0  0  0  0  0  0  0  0  0  0  0
   23.8150   17.2750    3.1750 C   0  0  0  0  0  0  0  0  0  0  0  0
   24.7920   17.5230    4.1440 C   0  0  0  0  0  0  0  0  0  0  0  0
   25.2810   16.4410    4.8450 C   0  0  0  0  0  0  0  0  0  0  0  0
   24.8350   15.1640    4.6190 C   0  0  0  0  0  0  0  0  0  0  0  0
   25.7400   14.5590    5.6530 C   0  0  0  0  0  0  0  0  0  0  0  0
   26.2630   16.0190    5.9140 C   0  0  2  0  0  0  0  0  0  0  0  0
   25.9420   16.6720    7.2940 C   0  0  0  0  0  0  0  0  0  0  0  0
   26.3010   17.8110    7.6000 O   0  0  0  0  0  0  0  0  0  0  0  0
   25.2060   15.8300    8.1180 N   0  0  0  0  0  0  0  0  0  0  0  0
   24.7500   16.0750    9.4310 C   0  0  0  0  0  0  0  0  0  0  0  0
   23.5110   15.6290    9.9320 C   0  0  0  0  0  0  0  0  0  0  0  0
   23.1040   15.9090   11.2470 C   0  0  0  0  0  0  0  0  0  0  0  0
   23.9560   16.6360   12.0540 C   0  0  0  0  0  0  0  0  0  0  0  0
   25.1790   17.0700   11.5550 C   0  0  0  0  0  0  0  0  0  0  0  0
   25.6010   16.8130   10.2630 C   0  0  0  0  0  0  0  0  0  0  0  0
   25.8670   17.8130   12.6150 C   0  0  0  0  0  0  0  0  0  0  0  0
   26.9260   18.3910   12.4720 O   0  0  0  0  0  0  0  0  0  0  0  0
   25.0700   17.7270   13.7460 N   0  0  0  0  0  0  0  0  0  0  0  0
   25.2730   18.5160   14.9570 C   0  0  1  0  0  0  0  0  0  0  0  0
   26.3060   17.9190   15.9130 C   0  0  0  0  0  0  0  0  0  0  0  0
   26.3930   18.7810   17.1630 C   0  0  0  0  0  0  0  0  0  0  0  0
   26.7300   20.2120   16.8170 C   0  0  0  0  0  0  0  0  0  0  0  0
   27.2600   20.9720   17.6240 O   0  0  0  0  0  0  0  0  0  0  0  0
   26.3400   20.6560   15.5790 N   0  0  0  0  0  0  0  0  0  0  0  0
   25.6300   19.9720   14.6190 C   0  0  0  0  0  0  0  0  0  0  0  0
   25.2330   20.5520   13.6100 O   0  0  0  0  0  0  0  0  0  0  0  0
   23.7870   17.0980   13.4610 C   0  0  0  0  0  0  0  0  0  0  0  0
   25.5940   11.9890    4.0820 C   0  0  0  0  0  0  0  0  0  0  0  0
   26.1670   11.3870    5.1030 N   0  0  0  0  0  0  0  0  0  0  0  0
   24.7464    9.1845    8.6779 H   0  0  0  0  0  0  0  0  0  0  0  0
   23.8606    9.4192    7.1330 H   0  0  0  0  0  0  0  0  0  0  0  0
   25.4708    8.6230    7.1330 H   0  0  0  0  0  0  0  0  0  0  0  0
   25.1706   11.4312    8.2199 H   0  0  0  0  0  0  0  0  0  0  0  0
   26.6110   10.6031    7.4836 H   0  0  0  0  0  0  0  0  0  0  0  0
   23.1253   12.1329    6.2471 H   0  0  0  0  0  0  0  0  0  0  0  0
   22.5917   15.7847    2.1632 H   0  0  0  0  0  0  0  0  0  0  0  0
   23.4017   18.1122    2.5933 H   0  0  0  0  0  0  0  0  0  0  0  0
   25.1566   18.5422    4.3396 H   0  0  0  0  0  0  0  0  0  0  0  0
   25.2225   14.0942    6.5051 H   0  0  0  0  0  0  0  0  0  0  0  0
   26.4194   13.7254    5.4219 H   0  0  0  0  0  0  0  0  0  0  0  0
   27.3428   16.2286    5.9036 H   0  0  0  0  0  0  0  0  0  0  0  0
   24.9624   14.9114    7.7208 H   0  0  0  0  0  0  0  0  0  0  0  0
   22.8458   15.0470    9.2771 H   0  0  0  0  0  0  0  0  0  0  0  0
   22.1319   15.5582   11.6238 H   0  0  0  0  0  0  0  0  0  0  0  0
   26.5739   17.1767    9.9007 H   0  0  0  0  0  0  0  0  0  0  0  0
   24.3101   18.4955   15.4884 H   0  0  0  0  0  0  0  0  0  0  0  0
   26.0028   16.8988   16.1908 H   0  0  0  0  0  0  0  0  0  0  0  0
   27.2885   17.8863   15.4194 H   0  0  0  0  0  0  0  0  0  0  0  0
   25.4245   18.7563   17.6840 H   0  0  0  0  0  0  0  0  0  0  0  0
   27.1901   18.3813   17.8071 H   0  0  0  0  0  0  0  0  0  0  0  0
   26.6121   21.6199   15.3385 H   0  0  0  0  0  0  0  0  0  0  0  0
   23.6013   16.2507   14.1374 H   0  0  0  0  0  0  0  0  0  0  0  0
   22.9291   17.7723   13.5997 H   0  0  0  0  0  0  0  0  0  0  0  0
   26.0848   12.1928    3.1189 H   0  0  0  0  0  0  0  0  0  0  0  0
  1  2  1  0
  2  3  1  0
  3  4  2  0
  4  5  1  0
  5  6  1  0
  6  7  2  0
  6  8  2  0
  6  9  1  0
  9 10  2  0
 10 11  1  0
 11 12  2  0
 12 13  1  0
 13 14  2  0
 14 15  1  0
 15 16  1  0
 16 17  1  0
 17 18  2  0
 17 19  1  0
 19 20  1  0
 20 21  2  0
 21 22  1  0
 22 23  2  0
 23 24  1  0
 24 25  2  0
 24 26  1  0
 26 27  2  0
 26 28  1  0
 28 29  1  0
 29 30  1  0
 30 31  1  0
 31 32  1  0
 32 33  2  0
 32 34  1  0
 34 35  1  0
 35 36  2  0
 28 37  1  0
  5 38  1  0
 38 39  2  0
 39  3  1  0
 14  9  1  0
 25 20  1  0
 35 29  1  0
 16 13  1  0
 37 23  1  0
  1 40  1  0
  1 41  1  0
  1 42  1  0
  2 43  1  0
  2 44  1  0
  4 45  1  0
 10 46  1  0
 11 47  1  0
 12 48  1  0
 15 49  1  0
 15 50  1  0
 16 51  1  6
 19 52  1  0
 21 53  1  0
 22 54  1  0
 25 55  1  0
 29 56  1  1
 30 57  1  0
 30 58  1  0
 31 59  1  0
 31 60  1  0
 34 61  1  0
 37 62  1  0
 37 63  1  0
 38 64  1  0
M  END
>  <meeko>  (87) 
{"is_sidechain": [true], "free_energy": -14.37, "intermolecular_energy": 0.0, "internal_energy": -14.37, "cluster_size": 19, "cluster_id": 1, "rank_in_cluster": 1}

>  <_RMSD_MCS_to_ref>  (87) 
0.5665093776805455

$$$$
ligand
     RDKit          3D

 55 59  0  0  0  0  0  0  0  0999 V2000
   24.8540    9.4020    7.6050 C   0  0  0  0  0  0  0  0  0  0  0  0
   25.5230   10.7550    7.4270 C   0  0  0  0  0  0  0  0  0  0  0  0
   25.1740   11.3870    6.1250 C   0  0  0  0  0  0  0  0  0  0  0  0
   24.3070   12.4320    5.8710 C   0  0  0  0  0  0  0  0  0  0  0  0
   24.3410   12.5730    4.5120 N   0  0  0  0  0  0  0  0  0  0  0  0
   23.6750   13.8510    3.6390 S   0  0  0  0  0  6  0  0  0  0  0  0
   24.1790   13.6820    2.2900 O   0  0  0  0  0  0  0  0  0  0  0  0
   22.2560   13.8040    3.9360 O   0  0  0  0  0  0  0  0  0  0  0  0
   24.3100   15.2100    4.2780 O   0  0  0  0  0  0  0  0  0  0  0  0
   25.2260   15.1740    5.2950 C   0  0  0  0  0  0  0  0  0  0  0  0
   26.5670   14.8370    5.1870 C   0  0  0  0  0  0  0  0  0  0  0  0
   27.4190   14.8220    6.2360 N   0  0  0  0  0  0  0  0  0  0  0  0
   26.9130   15.1590    7.4460 C   0  0  0  0  0  0  0  0  0  0  0  0
   25.5830   15.5120    7.6810 C   0  0  0  0  0  0  0  0  0  0  0  0
   25.0950   15.8630    9.0230 C   0  0  0  0  0  0  0  0  0  0  0  0
   23.8720   15.3240    9.5140 C   0  0  0  0  0  0  0  0  0  0  0  0
   23.3830   15.6370   10.7890 C   0  0  0  0  0  0  0  0  0  0  0  0
   24.1350   16.4970   11.5590 C   0  0  0  0  0  0  0  0  0  0  0  0
   25.3220   17.0310   11.1020 C   0  0  0  0  0  0  0  0  0  0  0  0
   25.8280   16.7360    9.8490 C   0  0  0  0  0  0  0  0  0  0  0  0
   25.8570   17.8830   12.1600 C   0  0  0  0  0  0  0  0  0  0  0  0
   26.9090   18.4890   12.0840 O   0  0  0  0  0  0  0  0  0  0  0  0
   24.9530   17.8520   13.1870 N   0  0  0  0  0  0  0  0  0  0  0  0
   25.2120   18.4620   14.4820 C   0  0  1  0  0  0  0  0  0  0  0  0
   26.3120   17.7780   15.2900 C   0  0  0  0  0  0  0  0  0  0  0  0
   26.4590   18.4840   16.6300 C   0  0  0  0  0  0  0  0  0  0  0  0
   26.7400   19.9580   16.4460 C   0  0  0  0  0  0  0  0  0  0  0  0
   27.3680   20.6140   17.2730 O   0  0  0  0  0  0  0  0  0  0  0  0
   26.2060   20.5510   15.3290 N   0  0  0  0  0  0  0  0  0  0  0  0
   25.5480   19.9440   14.2830 C   0  0  0  0  0  0  0  0  0  0  0  0
   25.2140   20.5940   13.2940 O   0  0  0  0  0  0  0  0  0  0  0  0
   23.9140   17.0040   12.9110 C   0  0  0  0  0  0  0  0  0  0  0  0
   22.9780   16.6800   13.6160 O   0  0  0  0  0  0  0  0  0  0  0  0
   24.7390   15.5140    6.5600 C   0  0  0  0  0  0  0  0  0  0  0  0
   25.2530   11.7070    3.9990 C   0  0  0  0  0  0  0  0  0  0  0  0
   25.7610   10.9540    4.9530 N   0  0  0  0  0  0  0  0  0  0  0  0
   24.7464    9.1845    8.6779 H   0  0  0  0  0  0  0  0  0  0  0  0
   23.8606    9.4192    7.1330 H   0  0  0  0  0  0  0  0  0  0  0  0
   25.4708    8.6230    7.1330 H   0  0  0  0  0  0  0  0  0  0  0  0
   25.2001   11.4200    8.2416 H   0  0  0  0  0  0  0  0  0  0  0  0
   26.6117   10.5989    7.4460 H   0  0  0  0  0  0  0  0  0  0  0  0
   23.7228   13.0169    6.5966 H   0  0  0  0  0  0  0  0  0  0  0  0
   26.9579   14.5676    4.1947 H   0  0  0  0  0  0  0  0  0  0  0  0
   27.5994   15.1543    8.3056 H   0  0  0  0  0  0  0  0  0  0  0  0
   23.2941   14.6417    8.8733 H   0  0  0  0  0  0  0  0  0  0  0  0
   22.4379   15.2137   11.1599 H   0  0  0  0  0  0  0  0  0  0  0  0
   26.7782   17.1721    9.5069 H   0  0  0  0  0  0  0  0  0  0  0  0
   24.2929   18.3418   15.0742 H   0  0  0  0  0  0  0  0  0  0  0  0
   26.0452   16.7239   15.4565 H   0  0  0  0  0  0  0  0  0  0  0  0
   27.2624   17.8288   14.7386 H   0  0  0  0  0  0  0  0  0  0  0  0
   25.5267   18.3655   17.2017 H   0  0  0  0  0  0  0  0  0  0  0  0
   27.3056   18.0336   17.1688 H   0  0  0  0  0  0  0  0  0  0  0  0
   26.3102   21.5738   15.2658 H   0  0  0  0  0  0  0  0  0  0  0  0
   23.6800   15.7868    6.6785 H   0  0  0  0  0  0  0  0  0  0  0  0
   25.5287   11.6434    2.9360 H   0  0  0  0  0  0  0  0  0  0  0  0
  1  2  1  0
  2  3  1  0
  3  4  2  0
  4  5  1  0
  5  6  1  0
  6  7  2  0
  6  8  2  0
  6  9  1  0
  9 10  1  0
 10 11  2  0
 11 12  1  0
 12 13  2  0
 13 14  1  0
 14 15  1  0
 15 16  2  0
 16 17  1  0
 17 18  2  0
 18 19  1  0
 19 20  2  0
 19 21  1  0
 21 22  2  0
 21 23  1  0
 23 24  1  0
 24 25  1  0
 25 26  1  0
 26 27  1  0
 27 28  2  0
 27 29  1  0
 29 30  1  0
 30 31  2  0
 23 32  1  0
 32 33  2  0
 14 34  2  0
  5 35  1  0
 35 36  2  0
 36  3  1  0
 34 10  1  0
 20 15  1  0
 30 24  1  0
 32 18  1  0
  1 37  1  0
  1 38  1  0
  1 39  1  0
  2 40  1  0
  2 41  1  0
  4 42  1  0
 11 43  1  0
 13 44  1  0
 16 45  1  0
 17 46  1  0
 20 47  1  0
 24 48  1  1
 25 49  1  0
 25 50  1  0
 26 51  1  0
 26 52  1  0
 29 53  1  0
 34 54  1  0
 35 55  1  0
M  END
>  <meeko>  (88) 
{"is_sidechain": [true], "free_energy": -14.36, "intermolecular_energy": 0.0, "internal_energy": -14.36, "cluster_size": 13, "cluster_id": 1, "rank_in_cluster": 1}

>  <_RMSD_MCS_to_ref>  (88) 
0.42300485944148497

$$$$
ligand
     RDKit          3D

 58 62  0  0  0  0  0  0  0  0999 V2000
   24.8540    9.4020    7.6050 C   0  0  0  0  0  0  0  0  0  0  0  0
   25.5230   10.7550    7.4270 C   0  0  0  0  0  0  0  0  0  0  0  0
   27.0030   10.6700    7.5500 C   0  0  0  0  0  0  0  0  0  0  0  0
   27.9360   11.6890    7.5340 C   0  0  0  0  0  0  0  0  0  0  0  0
   29.1320   11.0510    7.7000 N   0  0  0  0  0  0  0  0  0  0  0  0
   30.6510   11.7610    7.6230 S   0  0  0  0  0  6  0  0  0  0  0  0
   31.5260   10.8930    8.3890 O   0  0  0  0  0  0  0  0  0  0  0  0
   30.8810   12.0630    6.2230 O   0  0  0  0  0  0  0  0  0  0  0  0
   30.5090   13.2940    8.4980 C   0  0  0  0  0  0  0  0  0  0  0  0
   29.2740   13.8760    8.6350 C   0  0  0  0  0  0  0  0  0  0  0  0
   29.2920   15.0600    9.3300 C   0  0  0  0  0  0  0  0  0  0  0  0
   28.0130   15.8130    9.5560 C   0  0  0  0  0  0  0  0  0  0  0  0
   27.9310   16.9710    9.1760 O   0  0  0  0  0  0  0  0  0  0  0  0
   27.0540   15.0610   10.1990 N   0  0  0  0  0  0  0  0  0  0  0  0
   25.7350   15.3780   10.5780 C   0  0  0  0  0  0  0  0  0  0  0  0
   24.7300   14.9220    9.6970 C   0  0  0  0  0  0  0  0  0  0  0  0
   23.3630   15.1680    9.9240 C   0  0  0  0  0  0  0  0  0  0  0  0
   22.9620   15.8800   11.0460 C   0  0  0  0  0  0  0  0  0  0  0  0
   23.9550   16.3150   11.9030 C   0  0  0  0  0  0  0  0  0  0  0  0
   25.3250   16.0820   11.7010 C   0  0  0  0  0  0  0  0  0  0  0  0
   26.0790   16.7180   12.8240 C   0  0  0  0  0  0  0  0  0  0  0  0
   25.0300   17.2470   13.6900 N   0  0  0  0  0  0  0  0  0  0  0  0
   25.2880   18.1830   14.7760 C   0  0  1  0  0  0  0  0  0  0  0  0
   26.3230   17.6560   15.7660 C   0  0  0  0  0  0  0  0  0  0  0  0
   26.4750   18.6440   16.9130 C   0  0  0  0  0  0  0  0  0  0  0  0
   26.8390   20.0190   16.4040 C   0  0  0  0  0  0  0  0  0  0  0  0
   27.5590   20.7850   17.0380 O   0  0  0  0  0  0  0  0  0  0  0  0
   26.2950   20.3930   15.2000 N   0  0  0  0  0  0  0  0  0  0  0  0
   25.7430   19.5570   14.2550 C   0  0  0  0  0  0  0  0  0  0  0  0
   25.6330   19.9340   13.0900 O   0  0  0  0  0  0  0  0  0  0  0  0
   23.7760   17.0890   13.1350 C   0  0  0  0  0  0  0  0  0  0  0  0
   22.7110   17.4980   13.5580 O   0  0  0  0  0  0  0  0  0  0  0  0
   30.4160   15.6270    9.8460 N   0  0  0  0  0  0  0  0  0  0  0  0
   31.5550   14.9540    9.6430 C   0  0  0  0  0  0  0  0  0  0  0  0
   31.6650   13.7970    8.9820 N   0  0  0  0  0  0  0  0  0  0  0  0
   28.9170    9.7120    7.7690 C   0  0  0  0  0  0  0  0  0  0  0  0
   27.6290    9.4470    7.6930 N   0  0  0  0  0  0  0  0  0  0  0  0
   24.7464    9.1845    8.6779 H   0  0  0  0  0  0  0  0  0  0  0  0
   23.8606    9.4192    7.1330 H   0  0  0  0  0  0  0  0  0  0  0  0
   25.4708    8.6230    7.1330 H   0  0  0  0  0  0  0  0  0  0  0  0
   25.2722   11.1459    6.4299 H   0  0  0  0  0  0  0  0  0  0  0  0
   25.1556   11.4208    8.2218 H   0  0  0  0  0  0  0  0  0  0  0  0
   27.7565   12.7677    7.4148 H   0  0  0  0  0  0  0  0  0  0  0  0
   28.3536   13.4343    8.2254 H   0  0  0  0  0  0  0  0  0  0  0  0
   27.3520   14.1059   10.4438 H   0  0  0  0  0  0  0  0  0  0  0  0
   25.0259   14.3548    8.8022 H   0  0  0  0  0  0  0  0  0  0  0  0
   22.6119   14.7958    9.2118 H   0  0  0  0  0  0  0  0  0  0  0  0
   21.9004   16.0888   11.2443 H   0  0  0  0  0  0  0  0  0  0  0  0
   26.6897   15.9744   13.3570 H   0  0  0  0  0  0  0  0  0  0  0  0
   26.7799   17.4934   12.4813 H   0  0  0  0  0  0  0  0  0  0  0  0
   24.3279   18.2970   15.3007 H   0  0  0  0  0  0  0  0  0  0  0  0
   25.9918   16.6840   16.1605 H   0  0  0  0  0  0  0  0  0  0  0  0
   27.2900   17.5338   15.2560 H   0  0  0  0  0  0  0  0  0  0  0  0
   25.5242   18.7048   17.4627 H   0  0  0  0  0  0  0  0  0  0  0  0
   27.2819   18.2914   17.5723 H   0  0  0  0  0  0  0  0  0  0  0  0
   26.3003   21.3996   14.9818 H   0  0  0  0  0  0  0  0  0  0  0  0
   32.4777   15.3892   10.0544 H   0  0  0  0  0  0  0  0  0  0  0  0
   29.7078    8.9546    7.8737 H   0  0  0  0  0  0  0  0  0  0  0  0
  1  2  1  0
  2  3  1  0
  3  4  2  0
  4  5  1  0
  5  6  1  0
  6  7  2  0
  6  8  2  0
  6  9  1  0
  9 10  2  0
 10 11  1  0
 11 12  1  0
 12 13  2  0
 12 14  1  0
 14 15  1  0
 15 16  2  0
 16 17  1  0
 17 18  2  0
 18 19  1  0
 19 20  2  0
 20 21  1  0
 21 22  1  0
 22 23  1  0
 23 24  1  0
 24 25  1  0
 25 26  1  0
 26 27  2  0
 26 28  1  0
 28 29  1  0
 29 30  2  0
 22 31  1  0
 31 32  2  0
 11 33  2  0
 33 34  1  0
 34 35  2  0
  5 36  1  0
 36 37  2  0
 37  3  1  0
 35  9  1  0
 20 15  1  0
 29 23  1  0
 31 19  1  0
  1 38  1  0
  1 39  1  0
  1 40  1  0
  2 41  1  0
  2 42  1  0
  4 43  1  0
 10 44  1  0
 14 45  1  0
 16 46  1  0
 17 47  1  0
 18 48  1  0
 21 49  1  0
 21 50  1  0
 23 51  1  1
 24 52  1  0
 24 53  1  0
 25 54  1  0
 25 55  1  0
 28 56  1  0
 34 57  1  0
 36 58  1  0
M  END
>  <meeko>  (89) 
{"is_sidechain": [true], "free_energy": -14.36, "intermolecular_energy": 0.0, "internal_energy": -14.36, "cluster_size": 19, "cluster_id": 1, "rank_in_cluster": 1}

>  <_RMSD_MCS_to_ref>  (89) 
0.6340147868938063

$$$$
ligand
     RDKit          3D

 59 64  0  0  0  0  0  0  0  0999 V2000
   24.8540    9.4020    7.6050 C   0  0  0  0  0  0  0  0  0  0  0  0
   25.5230   10.7550    7.4270 C   0  0  0  0  0  0  0  0  0  0  0  0
   27.0030   10.6730    7.5580 C   0  0  0  0  0  0  0  0  0  0  0  0
   27.9340   11.6930    7.5450 C   0  0  0  0  0  0  0  0  0  0  0  0
   29.1300   11.0560    7.7180 N   0  0  0  0  0  0  0  0  0  0  0  0
   30.6450   11.7640    7.6640 S   0  0  0  0  0  6  0  0  0  0  0  0
   30.4690   13.0630    7.0420 O   0  0  0  0  0  0  0  0  0  0  0  0
   31.5490   10.7620    7.1330 O   0  0  0  0  0  0  0  0  0  0  0  0
   31.1990   12.0940    9.2730 C   0  0  0  0  0  0  0  0  0  0  0  0
   32.2920   11.4930    9.7870 N   0  0  0  0  0  0  0  0  0  0  0  0
   32.4020   12.0190   11.0190 N   0  0  0  0  0  0  0  0  0  0  0  0
   31.4280   12.9230   11.3070 C   0  0  0  0  0  0  0  0  0  0  0  0
   30.6130   12.9950   10.1970 C   0  0  0  0  0  0  0  0  0  0  0  0
   29.4360   13.8410   10.0680 C   0  0  0  0  0  0  0  0  0  0  0  0
   28.1160   13.6250   10.3750 C   0  0  0  0  0  0  0  0  0  0  0  0
   27.4720   14.7970   10.0390 N   0  0  0  0  0  0  0  0  0  0  0  0
   26.0910   15.1140   10.1380 C   0  0  0  0  0  0  0  0  0  0  0  0
   25.1630   14.5680    9.2280 C   0  0  0  0  0  0  0  0  0  0  0  0
   23.7890   14.8670    9.3200 C   0  0  0  0  0  0  0  0  0  0  0  0
   23.3130   15.7130   10.3160 C   0  0  0  0  0  0  0  0  0  0  0  0
   24.2390   16.2440   11.1950 C   0  0  0  0  0  0  0  0  0  0  0  0
   25.6080   15.9670   11.1290 C   0  0  0  0  0  0  0  0  0  0  0  0
   26.3000   16.6850   12.2460 C   0  0  0  0  0  0  0  0  0  0  0  0
   25.2290   17.4550   12.8630 N   0  0  0  0  0  0  0  0  0  0  0  0
   25.4250   18.1380   14.1360 C   0  0  1  0  0  0  0  0  0  0  0  0
   26.6010   17.5970   14.9480 C   0  0  0  0  0  0  0  0  0  0  0  0
   26.6770   18.3320   16.2770 C   0  0  0  0  0  0  0  0  0  0  0  0
   26.7920   19.8250   16.0720 C   0  0  0  0  0  0  0  0  0  0  0  0
   27.2850   20.5650   16.9180 O   0  0  0  0  0  0  0  0  0  0  0  0
   26.2440   20.3330   14.9210 N   0  0  0  0  0  0  0  0  0  0  0  0
   25.5610   19.6550   13.9360 C   0  0  0  0  0  0  0  0  0  0  0  0
   25.0220   20.2730   13.0190 O   0  0  0  0  0  0  0  0  0  0  0  0
   23.9920   17.1460   12.3240 C   0  0  0  0  0  0  0  0  0  0  0  0
   22.8930   17.5110   12.6920 O   0  0  0  0  0  0  0  0  0  0  0  0
   28.3810   15.6820    9.5650 N   0  0  0  0  0  0  0  0  0  0  0  0
   29.5760   15.1100    9.5820 N   0  0  0  0  0  0  0  0  0  0  0  0
   28.9180    9.7150    7.7670 C   0  0  0  0  0  0  0  0  0  0  0  0
   27.6290    9.4490    7.7000 N   0  0  0  0  0  0  0  0  0  0  0  0
   24.7464    9.1845    8.6779 H   0  0  0  0  0  0  0  0  0  0  0  0
   23.8606    9.4192    7.1330 H   0  0  0  0  0  0  0  0  0  0  0  0
   25.4708    8.6230    7.1330 H   0  0  0  0  0  0  0  0  0  0  0  0
   25.2770   11.1428    6.4275 H   0  0  0  0  0  0  0  0  0  0  0  0
   25.1508   11.4220    8.2186 H   0  0  0  0  0  0  0  0  0  0  0  0
   27.7538   12.7713    7.4232 H   0  0  0  0  0  0  0  0  0  0  0  0
   33.1498   11.7628   11.6793 H   0  0  0  0  0  0  0  0  0  0  0  0
   31.3125   13.4876   12.2440 H   0  0  0  0  0  0  0  0  0  0  0  0
   27.6683   12.7135   10.7979 H   0  0  0  0  0  0  0  0  0  0  0  0
   25.5177   13.8967    8.4321 H   0  0  0  0  0  0  0  0  0  0  0  0
   23.0862   14.4271    8.5971 H   0  0  0  0  0  0  0  0  0  0  0  0
   22.2423   15.9503   10.4011 H   0  0  0  0  0  0  0  0  0  0  0  0
   26.7363   15.9728   12.9619 H   0  0  0  0  0  0  0  0  0  0  0  0
   27.1373   17.3103   11.9026 H   0  0  0  0  0  0  0  0  0  0  0  0
   24.5200   17.9317   14.7262 H   0  0  0  0  0  0  0  0  0  0  0  0
   26.4572   16.5219   15.1308 H   0  0  0  0  0  0  0  0  0  0  0  0
   27.5357   17.7509   14.3888 H   0  0  0  0  0  0  0  0  0  0  0  0
   25.7670   18.1188   16.8571 H   0  0  0  0  0  0  0  0  0  0  0  0
   27.5713   17.9852   16.8154 H   0  0  0  0  0  0  0  0  0  0  0  0
   26.3575   21.3464   14.7759 H   0  0  0  0  0  0  0  0  0  0  0  0
   29.7111    8.9574    7.8508 H   0  0  0  0  0  0  0  0  0  0  0  0
  1  2  1  0
  2  3  1  0
  3  4  2  0
  4  5  1  0
  5  6  1  0
  6  7  2  0
  6  8  2  0
  6  9  1  0
  9 10  2  0
 10 11  1  0
 11 12  1  0
 12 13  2  0
 13 14  1  0
 14 15  2  0
 15 16  1  0
 16 17  1  0
 17 18  2  0
 18 19  1  0
 19 20  2  0
 20 21  1  0
 21 22  2  0
 22 23  1  0
 23 24  1  0
 24 25  1  0
 25 26  1  0
 26 27  1  0
 27 28  1  0
 28 29  2  0
 28 30  1  0
 30 31  1  0
 31 32  2  0
 24 33  1  0
 33 34  2  0
 16 35  1  0
 35 36  2  0
  5 37  1  0
 37 38  2  0
 38  3  1  0
 13  9  1  0
 36 14  1  0
 22 17  1  0
 31 25  1  0
 33 21  1  0
  1 39  1  0
  1 40  1  0
  1 41  1  0
  2 42  1  0
  2 43  1  0
  4 44  1  0
 11 45  1  0
 12 46  1  0
 15 47  1  0
 18 48  1  0
 19 49  1  0
 20 50  1  0
 23 51  1  0
 23 52  1  0
 25 53  1  1
 26 54  1  0
 26 55  1  0
 27 56  1  0
 27 57  1  0
 30 58  1  0
 37 59  1  0
M  END
>  <meeko>  (90) 
{"is_sidechain": [true], "free_energy": -14.35, "intermolecular_energy": 0.0, "internal_energy": -14.35, "cluster_size": 17, "cluster_id": 1, "rank_in_cluster": 1}

>  <_RMSD_MCS_to_ref>  (90) 
0.7012338332460066

$$$$
ligand
     RDKit          3D

 61 66  0  0  0  0  0  0  0  0999 V2000
   24.8540    9.4020    7.6050 C   0  0  0  0  0  0  0  0  0  0  0  0
   25.5230   10.7550    7.4270 C   0  0  0  0  0  0  0  0  0  0  0  0
   25.1410   11.4080    6.1460 C   0  0  0  0  0  0  0  0  0  0  0  0
   24.4260   12.5710    5.9410 C   0  0  0  0  0  0  0  0  0  0  0  0
   24.3830   12.7020    4.5820 N   0  0  0  0  0  0  0  0  0  0  0  0
   23.5780   13.9170    3.7400 S   0  0  0  0  0  6  0  0  0  0  0  0
   22.1660   13.7340    4.0220 O   0  0  0  0  0  0  0  0  0  0  0  0
   24.0790   13.7920    2.3830 O   0  0  0  0  0  0  0  0  0  0  0  0
   24.0700   15.3600    4.3080 O   0  0  0  0  0  0  0  0  0  0  0  0
   24.9860   15.3600    5.3270 C   0  0  0  0  0  0  0  0  0  0  0  0
   24.5180   15.6790    6.5440 N   0  0  0  0  0  0  0  0  0  0  0  0
   25.4100   15.6210    7.5480 C   0  0  0  0  0  0  0  0  0  0  0  0
   24.9510   15.9600    8.9130 C   0  0  0  0  0  0  0  0  0  0  0  0
   23.7550   15.4070    9.4480 C   0  0  0  0  0  0  0  0  0  0  0  0
   23.3000   15.7140   10.7360 C   0  0  0  0  0  0  0  0  0  0  0  0
   24.0630   16.5840   11.4850 C   0  0  0  0  0  0  0  0  0  0  0  0
   25.2410   17.1470   11.0070 C   0  0  0  0  0  0  0  0  0  0  0  0
   25.6950   16.8430    9.7310 C   0  0  0  0  0  0  0  0  0  0  0  0
   25.8480   18.0210   12.0510 C   0  0  0  0  0  0  0  0  0  0  0  0
   24.8520   17.9910   13.1130 N   0  0  0  0  0  0  0  0  0  0  0  0
   25.1330   18.5480   14.4320 C   0  0  1  0  0  0  0  0  0  0  0  0
   26.2870   17.8580   15.1580 C   0  0  0  0  0  0  0  0  0  0  0  0
   26.4530   18.4720   16.5390 C   0  0  0  0  0  0  0  0  0  0  0  0
   26.6730   19.9640   16.4530 C   0  0  0  0  0  0  0  0  0  0  0  0
   27.2240   20.5970   17.3490 O   0  0  0  0  0  0  0  0  0  0  0  0
   26.1480   20.6030   15.3570 N   0  0  0  0  0  0  0  0  0  0  0  0
   25.3700   20.0640   14.3570 C   0  0  0  0  0  0  0  0  0  0  0  0
   24.8250   20.7970   13.5330 O   0  0  0  0  0  0  0  0  0  0  0  0
   23.8430   17.0750   12.8500 C   0  0  0  0  0  0  0  0  0  0  0  0
   22.9470   16.7060   13.5840 O   0  0  0  0  0  0  0  0  0  0  0  0
   26.7020   15.2700    7.3950 N   0  0  0  0  0  0  0  0  0  0  0  0
   27.1290   14.9390    6.1700 C   0  0  0  0  0  0  0  0  0  0  0  0
   28.4540   14.5590    5.9880 C   0  0  0  0  0  0  0  0  0  0  0  0
   28.9520   14.1980    4.7330 C   0  0  0  0  0  0  0  0  0  0  0  0
   28.1140   14.2130    3.6240 C   0  0  0  0  0  0  0  0  0  0  0  0
   26.7840   14.5910    3.7790 C   0  0  0  0  0  0  0  0  0  0  0  0
   26.2910   14.9570    5.0550 C   0  0  0  0  0  0  0  0  0  0  0  0
   25.0200   11.6490    4.0100 C   0  0  0  0  0  0  0  0  0  0  0  0
   25.4990   10.8430    4.9360 N   0  0  0  0  0  0  0  0  0  0  0  0
   24.7464    9.1845    8.6779 H   0  0  0  0  0  0  0  0  0  0  0  0
   23.8606    9.4192    7.1330 H   0  0  0  0  0  0  0  0  0  0  0  0
   25.4708    8.6230    7.1330 H   0  0  0  0  0  0  0  0  0  0  0  0
   25.2261   11.4091    8.2601 H   0  0  0  0  0  0  0  0  0  0  0  0
   26.6110   10.5937    7.4119 H   0  0  0  0  0  0  0  0  0  0  0  0
   23.9906   13.2392    6.6986 H   0  0  0  0  0  0  0  0  0  0  0  0
   23.1670   14.7140    8.8284 H   0  0  0  0  0  0  0  0  0  0  0  0
   22.3715   15.2787   11.1340 H   0  0  0  0  0  0  0  0  0  0  0  0
   26.6295   17.2868    9.3571 H   0  0  0  0  0  0  0  0  0  0  0  0
   26.8098   17.6152   12.3978 H   0  0  0  0  0  0  0  0  0  0  0  0
   26.0735   19.0363   11.6929 H   0  0  0  0  0  0  0  0  0  0  0  0
   24.2318   18.3550   15.0325 H   0  0  0  0  0  0  0  0  0  0  0  0
   26.0687   16.7845   15.2573 H   0  0  0  0  0  0  0  0  0  0  0  0
   27.2151   17.9905   14.5827 H   0  0  0  0  0  0  0  0  0  0  0  0
   25.5456   18.2770   17.1294 H   0  0  0  0  0  0  0  0  0  0  0  0
   27.3334   18.0181   17.0175 H   0  0  0  0  0  0  0  0  0  0  0  0
   26.3620   21.6070   15.2727 H   0  0  0  0  0  0  0  0  0  0  0  0
   29.1293   14.5420    6.8561 H   0  0  0  0  0  0  0  0  0  0  0  0
   30.0058   13.9024    4.6230 H   0  0  0  0  0  0  0  0  0  0  0  0
   28.4987   13.9288    2.6334 H   0  0  0  0  0  0  0  0  0  0  0  0
   26.1132   14.6056    2.9074 H   0  0  0  0  0  0  0  0  0  0  0  0
   25.1221   11.4906    2.9263 H   0  0  0  0  0  0  0  0  0  0  0  0
  1  2  1  0
  2  3  1  0
  3  4  2  0
  4  5  1  0
  5  6  1  0
  6  7  2  0
  6  8  2  0
  6  9  1  0
  9 10  1  0
 10 11  2  0
 11 12  1  0
 12 13  1  0
 13 14  2  0
 14 15  1  0
 15 16  2  0
 16 17  1  0
 17 18  2  0
 17 19  1  0
 19 20  1  0
 20 21  1  0
 21 22  1  0
 22 23  1  0
 23 24  1  0
 24 25  2  0
 24 26  1  0
 26 27  1  0
 27 28  2  0
 20 29  1  0
 29 30  2  0
 12 31  2  0
 31 32  1  0
 32 33  2  0
 33 34  1  0
 34 35  2  0
 35 36  1  0
 36 37  2  0
  5 38  1  0
 38 39  2  0
 39  3  1  0
 37 10  1  0
 18 13  1  0
 27 21  1  0
 37 32  1  0
 29 16  1  0
  1 40  1  0
  1 41  1  0
  1 42  1  0
  2 43  1  0
  2 44  1  0
  4 45  1  0
 14 46  1  0
 15 47  1  0
 18 48  1  0
 19 49  1  0
 19 50  1  0
 21 51  1  1
 22 52  1  0
 22 53  1  0
 23 54  1  0
 23 55  1  0
 26 56  1  0
 33 57  1  0
 34 58  1  0
 35 59  1  0
 36 60  1  0
 38 61  1  0
M  END
>  <meeko>  (91) 
{"is_sidechain": [true], "free_energy": -14.35, "intermolecular_energy": 0.0, "internal_energy": -14.35, "cluster_size": 14, "cluster_id": 1, "rank_in_cluster": 1}

>  <_RMSD_MCS_to_ref>  (91) 
0.3955720190081975

$$$$
ligand
     RDKit          3D

 59 64  0  0  0  0  0  0  0  0999 V2000
   24.8540    9.4020    7.6050 C   0  0  0  0  0  0  0  0  0  0  0  0
   25.5230   10.7550    7.4270 C   0  0  0  0  0  0  0  0  0  0  0  0
   25.3190   11.3080    6.0590 C   0  0  0  0  0  0  0  0  0  0  0  0
   24.3940   12.2360    5.6260 C   0  0  0  0  0  0  0  0  0  0  0  0
   24.6360   12.3510    4.2870 N   0  0  0  0  0  0  0  0  0  0  0  0
   23.9820   13.5110    3.2710 S   0  0  0  0  0  6  0  0  0  0  0  0
   24.0150   12.9480    1.9360 O   0  0  0  0  0  0  0  0  0  0  0  0
   22.7600   13.9620    3.9050 O   0  0  0  0  0  0  0  0  0  0  0  0
   24.9790   14.8900    3.1960 C   0  0  0  0  0  0  0  0  0  0  0  0
   25.3730   15.5540    2.0220 C   0  0  0  0  0  0  0  0  0  0  0  0
   26.1560   16.6050    2.2750 N   0  0  0  0  0  0  0  0  0  0  0  0
   26.2600   16.6080    3.6170 N   0  0  0  0  0  0  0  0  0  0  0  0
   25.5690   15.5950    4.2210 C   0  0  0  0  0  0  0  0  0  0  0  0
   25.5500   15.4110    5.7480 C   0  0  0  0  0  0  0  0  0  0  0  0
   24.8890   16.1520    6.6930 C   0  0  0  0  0  0  0  0  0  0  0  0
   25.2140   15.5580    7.8940 N   0  0  0  0  0  0  0  0  0  0  0  0
   24.8080   15.9160    9.2070 C   0  0  0  0  0  0  0  0  0  0  0  0
   23.6320   15.3670    9.7740 C   0  0  0  0  0  0  0  0  0  0  0  0
   23.2350   15.7190   11.0690 C   0  0  0  0  0  0  0  0  0  0  0  0
   24.0260   16.6150   11.7600 C   0  0  0  0  0  0  0  0  0  0  0  0
   25.1870   17.1640   11.2230 C   0  0  0  0  0  0  0  0  0  0  0  0
   25.5960   16.8230    9.9440 C   0  0  0  0  0  0  0  0  0  0  0  0
   25.8300   18.0690   12.2200 C   0  0  0  0  0  0  0  0  0  0  0  0
   24.8700   18.0710   13.3170 N   0  0  0  0  0  0  0  0  0  0  0  0
   25.1990   18.6620   14.6090 C   0  0  1  0  0  0  0  0  0  0  0  0
   26.2880   17.9080   15.3720 C   0  0  0  0  0  0  0  0  0  0  0  0
   26.5060   18.5690   16.7240 C   0  0  0  0  0  0  0  0  0  0  0  0
   26.8570   20.0300   16.5690 C   0  0  0  0  0  0  0  0  0  0  0  0
   27.4690   20.6510   17.4340 O   0  0  0  0  0  0  0  0  0  0  0  0
   26.3850   20.6620   15.4470 N   0  0  0  0  0  0  0  0  0  0  0  0
   25.5710   20.1460   14.4640 C   0  0  0  0  0  0  0  0  0  0  0  0
   25.1030   20.8810   13.5950 O   0  0  0  0  0  0  0  0  0  0  0  0
   23.8530   17.1490   13.1150 C   0  0  0  0  0  0  0  0  0  0  0  0
   22.9770   16.8060   13.8850 O   0  0  0  0  0  0  0  0  0  0  0  0
   26.0400   14.5050    7.6640 N   0  0  0  0  0  0  0  0  0  0  0  0
   26.2470   14.4100    6.3590 N   0  0  0  0  0  0  0  0  0  0  0  0
   25.6950   11.5680    3.9570 C   0  0  0  0  0  0  0  0  0  0  0  0
   26.1280   10.9120    5.0130 N   0  0  0  0  0  0  0  0  0  0  0  0
   24.7464    9.1845    8.6779 H   0  0  0  0  0  0  0  0  0  0  0  0
   23.8606    9.4192    7.1330 H   0  0  0  0  0  0  0  0  0  0  0  0
   25.4708    8.6230    7.1330 H   0  0  0  0  0  0  0  0  0  0  0  0
   25.1007   11.4582    8.1599 H   0  0  0  0  0  0  0  0  0  0  0  0
   26.6040   10.6197    7.5788 H   0  0  0  0  0  0  0  0  0  0  0  0
   23.6351   12.7628    6.2231 H   0  0  0  0  0  0  0  0  0  0  0  0
   25.0710   15.2435    1.0109 H   0  0  0  0  0  0  0  0  0  0  0  0
   26.8079   17.3068    4.1389 H   0  0  0  0  0  0  0  0  0  0  0  0
   24.2425   17.0268    6.5294 H   0  0  0  0  0  0  0  0  0  0  0  0
   23.0255   14.6579    9.1915 H   0  0  0  0  0  0  0  0  0  0  0  0
   22.3250   15.2968   11.5203 H   0  0  0  0  0  0  0  0  0  0  0  0
   26.5140   17.2500    9.5138 H   0  0  0  0  0  0  0  0  0  0  0  0
   26.8033   17.6730   12.5454 H   0  0  0  0  0  0  0  0  0  0  0  0
   26.0429   19.0731   11.8245 H   0  0  0  0  0  0  0  0  0  0  0  0
   24.2837   18.5777   15.2132 H   0  0  0  0  0  0  0  0  0  0  0  0
   25.9765   16.8635   15.5199 H   0  0  0  0  0  0  0  0  0  0  0  0
   27.2246   17.9318   14.7956 H   0  0  0  0  0  0  0  0  0  0  0  0
   25.5842   18.4828   17.3181 H   0  0  0  0  0  0  0  0  0  0  0  0
   27.3420   18.0621   17.2281 H   0  0  0  0  0  0  0  0  0  0  0  0
   26.6751   21.6427   15.3249 H   0  0  0  0  0  0  0  0  0  0  0  0
   26.1298   11.4925    2.9494 H   0  0  0  0  0  0  0  0  0  0  0  0
  1  2  1  0
  2  3  1  0
  3  4  2  0
  4  5  1  0
  5  6  1  0
  6  7  2  0
  6  8  2  0
  6  9  1  0
  9 10  1  0
 10 11  2  0
 11 12  1  0
 12 13  1  0
 13 14  1  0
 14 15  2  0
 15 16  1  0
 16 17  1  0
 17 18  2  0
 18 19  1  0
 19 20  2  0
 20 21  1  0
 21 22  2  0
 21 23  1  0
 23 24  1  0
 24 25  1  0
 25 26  1  0
 26 27  1  0
 27 28  1  0
 28 29  2  0
 28 30  1  0
 30 31  1  0
 31 32  2  0
 24 33  1  0
 33 34  2  0
 16 35  1  0
 35 36  2  0
  5 37  1  0
 37 38  2  0
 38  3  1  0
 13  9  2  0
 36 14  1  0
 22 17  1  0
 31 25  1  0
 33 20  1  0
  1 39  1  0
  1 40  1  0
  1 41  1  0
  2 42  1  0
  2 43  1  0
  4 44  1  0
 10 45  1  0
 12 46  1  0
 15 47  1  0
 18 48  1  0
 19 49  1  0
 22 50  1  0
 23 51  1  0
 23 52  1  0
 25 53  1  1
 26 54  1  0
 26 55  1  0
 27 56  1  0
 27 57  1  0
 30 58  1  0
 37 59  1  0
M  END
>  <meeko>  (92) 
{"is_sidechain": [true], "free_energy": -14.34, "intermolecular_energy": 0.0, "internal_energy": -14.34, "cluster_size": 16, "cluster_id": 1, "rank_in_cluster": 1}

>  <_RMSD_MCS_to_ref>  (92) 
0.4309488239790068

$$$$
ligand
     RDKit          3D

 61 66  0  0  0  0  0  0  0  0999 V2000
   24.8540    9.4020    7.6050 C   0  0  0  0  0  0  0  0  0  0  0  0
   25.5230   10.7550    7.4270 C   0  0  0  0  0  0  0  0  0  0  0  0
   27.0020   10.6370    7.3140 C   0  0  0  0  0  0  0  0  0  0  0  0
   27.8740   11.3790    6.5400 C   0  0  0  0  0  0  0  0  0  0  0  0
   29.1030   10.8630    6.8390 N   0  0  0  0  0  0  0  0  0  0  0  0
   30.5780   11.4190    6.2400 S   0  0  0  0  0  6  0  0  0  0  0  0
   30.5300   11.0540    4.8330 O   0  0  0  0  0  0  0  0  0  0  0  0
   31.6020   10.8620    7.1060 O   0  0  0  0  0  0  0  0  0  0  0  0
   30.6280   13.0450    6.3130 O   0  0  0  0  0  0  0  0  0  0  0  0
   29.5050   13.7460    6.6670 C   0  0  0  0  0  0  0  0  0  0  0  0
   29.1990   13.8260    8.0080 C   0  0  0  0  0  0  0  0  0  0  0  0
   28.0920   14.5850    8.3750 C   0  0  0  0  0  0  0  0  0  0  0  0
   27.3320   15.2650    7.3950 C   0  0  0  0  0  0  0  0  0  0  0  0
   26.1950   16.0680    7.6400 C   0  0  0  0  0  0  0  0  0  0  0  0
   25.6620   16.3380    8.9850 C   0  0  0  0  0  0  0  0  0  0  0  0
   24.3550   15.9230    9.3490 C   0  0  0  0  0  0  0  0  0  0  0  0
   23.8360   16.1750   10.6220 C   0  0  0  0  0  0  0  0  0  0  0  0
   24.6520   16.8350   11.5190 C   0  0  0  0  0  0  0  0  0  0  0  0
   25.9440   17.2440   11.2010 C   0  0  0  0  0  0  0  0  0  0  0  0
   26.4630   17.0000    9.9400 C   0  0  0  0  0  0  0  0  0  0  0  0
   26.5660   17.9310   12.3710 C   0  0  0  0  0  0  0  0  0  0  0  0
   25.5400   17.7990   13.3980 N   0  0  0  0  0  0  0  0  0  0  0  0
   25.5630   18.5350   14.6550 C   0  0  1  0  0  0  0  0  0  0  0  0
   26.5810   17.9740   15.6430 C   0  0  0  0  0  0  0  0  0  0  0  0
   26.4840   18.7350   16.9560 C   0  0  0  0  0  0  0  0  0  0  0  0
   26.6640   20.2210   16.7410 C   0  0  0  0  0  0  0  0  0  0  0  0
   27.2390   20.9370   17.5540 O   0  0  0  0  0  0  0  0  0  0  0  0
   26.1340   20.7420   15.5890 N   0  0  0  0  0  0  0  0  0  0  0  0
   25.8440   20.0340   14.4450 C   0  0  0  0  0  0  0  0  0  0  0  0
   25.8290   20.5970   13.3540 O   0  0  0  0  0  0  0  0  0  0  0  0
   24.3740   17.2310   12.9030 C   0  0  0  0  0  0  0  0  0  0  0  0
   23.3120   17.0790   13.4740 O   0  0  0  0  0  0  0  0  0  0  0  0
   25.4880   16.6650    6.6480 N   0  0  0  0  0  0  0  0  0  0  0  0
   25.9220   16.4960    5.3860 C   0  0  0  0  0  0  0  0  0  0  0  0
   27.0310   15.7440    5.0580 C   0  0  0  0  0  0  0  0  0  0  0  0
   27.7430   15.1140    6.0570 C   0  0  0  0  0  0  0  0  0  0  0  0
   28.8100   14.3760    5.7050 N   0  0  0  0  0  0  0  0  0  0  0  0
   28.9590    9.8520    7.7340 C   0  0  0  0  0  0  0  0  0  0  0  0
   27.6900    9.6910    8.0500 N   0  0  0  0  0  0  0  0  0  0  0  0
   24.7464    9.1845    8.6779 H   0  0  0  0  0  0  0  0  0  0  0  0
   23.8606    9.4192    7.1330 H   0  0  0  0  0  0  0  0  0  0  0  0
   25.4708    8.6230    7.1330 H   0  0  0  0  0  0  0  0  0  0  0  0
   25.1337   11.2257    6.5122 H   0  0  0  0  0  0  0  0  0  0  0  0
   25.2984   11.3637    8.3153 H   0  0  0  0  0  0  0  0  0  0  0  0
   27.6339   12.1963    5.8440 H   0  0  0  0  0  0  0  0  0  0  0  0
   29.8089   13.3077    8.7626 H   0  0  0  0  0  0  0  0  0  0  0  0
   27.8060   14.6566    9.4347 H   0  0  0  0  0  0  0  0  0  0  0  0
   23.7357   15.3905    8.6121 H   0  0  0  0  0  0  0  0  0  0  0  0
   22.8188   15.8603   10.8980 H   0  0  0  0  0  0  0  0  0  0  0  0
   27.4851   17.3178    9.6866 H   0  0  0  0  0  0  0  0  0  0  0  0
   27.4985   17.4328   12.6746 H   0  0  0  0  0  0  0  0  0  0  0  0
   26.8495   18.9740   12.1666 H   0  0  0  0  0  0  0  0  0  0  0  0
   24.5556   18.4133   15.0797 H   0  0  0  0  0  0  0  0  0  0  0  0
   26.3718   16.9087   15.8201 H   0  0  0  0  0  0  0  0  0  0  0  0
   27.5940   18.0843   15.2287 H   0  0  0  0  0  0  0  0  0  0  0  0
   25.4955   18.5543   17.4034 H   0  0  0  0  0  0  0  0  0  0  0  0
   27.2826   18.3803   17.6242 H   0  0  0  0  0  0  0  0  0  0  0  0
   25.9353   21.7526   15.5788 H   0  0  0  0  0  0  0  0  0  0  0  0
   25.3634   16.9829    4.5731 H   0  0  0  0  0  0  0  0  0  0  0  0
   27.3449   15.6476    4.0081 H   0  0  0  0  0  0  0  0  0  0  0  0
   29.7866    9.2510    8.1389 H   0  0  0  0  0  0  0  0  0  0  0  0
  1  2  1  0
  2  3  1  0
  3  4  2  0
  4  5  1  0
  5  6  1  0
  6  7  2  0
  6  8  2  0
  6  9  1  0
  9 10  1  0
 10 11  2  0
 11 12  1  0
 12 13  2  0
 13 14  1  0
 14 15  1  0
 15 16  2  0
 16 17  1  0
 17 18  2  0
 18 19  1  0
 19 20  2  0
 19 21  1  0
 21 22  1  0
 22 23  1  0
 23 24  1  0
 24 25  1  0
 25 26  1  0
 26 27  2  0
 26 28  1  0
 28 29  1  0
 29 30  2  0
 22 31  1  0
 31 32  2  0
 14 33  2  0
 33 34  1  0
 34 35  2  0
 35 36  1  0
 36 37  2  0
  5 38  1  0
 38 39  2  0
 39  3  1  0
 37 10  1  0
 36 13  1  0
 20 15  1  0
 29 23  1  0
 31 18  1  0
  1 40  1  0
  1 41  1  0
  1 42  1  0
  2 43  1  0
  2 44  1  0
  4 45  1  0
 11 46  1  0
 12 47  1  0
 16 48  1  0
 17 49  1  0
 20 50  1  0
 21 51  1  0
 21 52  1  0
 23 53  1  1
 24 54  1  0
 24 55  1  0
 25 56  1  0
 25 57  1  0
 28 58  1  0
 34 59  1  0
 35 60  1  0
 38 61  1  0
M  END
>  <meeko>  (93) 
{"is_sidechain": [true], "free_energy": -14.34, "intermolecular_energy": 0.0, "internal_energy": -14.34, "cluster_size": 20, "cluster_id": 1, "rank_in_cluster": 1}

>  <_RMSD_MCS_to_ref>  (93) 
0.716608989927173

$$$$
ligand
     RDKit          3D

 59 64  0  0  0  0  0  0  0  0999 V2000
   24.8540    9.4020    7.6050 C   0  0  0  0  0  0  0  0  0  0  0  0
   25.5230   10.7550    7.4270 C   0  0  0  0  0  0  0  0  0  0  0  0
   25.7220   11.0990    5.9930 C   0  0  0  0  0  0  0  0  0  0  0  0
   26.8820   11.4650    5.3390 C   0  0  0  0  0  0  0  0  0  0  0  0
   26.4960   11.6320    4.0390 N   0  0  0  0  0  0  0  0  0  0  0  0
   27.4300   12.3190    2.8170 S   0  0  0  0  0  6  0  0  0  0  0  0
   26.7700   11.9360    1.5820 O   0  0  0  0  0  0  0  0  0  0  0  0
   28.7900   11.9060    3.1090 O   0  0  0  0  0  0  0  0  0  0  0  0
   27.3100   13.9340    3.0080 O   0  0  0  0  0  0  0  0  0  0  0  0
   26.6350   14.5310    4.0460 C   0  0  0  0  0  0  0  0  0  0  0  0
   25.6200   15.4870    3.6200 C   0  0  0  0  0  0  0  0  0  0  0  0
   24.8640   16.1620    4.5090 C   0  0  0  0  0  0  0  0  0  0  0  0
   25.0530   15.9450    5.9010 C   0  0  0  0  0  0  0  0  0  0  0  0
   24.4580   16.4640    6.9530 N   0  0  0  0  0  0  0  0  0  0  0  0
   25.0540   15.8770    8.0480 C   0  0  0  0  0  0  0  0  0  0  0  0
   24.6630   16.1890    9.4160 C   0  0  0  0  0  0  0  0  0  0  0  0
   23.4070   15.7940    9.9450 C   0  0  0  0  0  0  0  0  0  0  0  0
   23.0390   16.0960   11.2620 C   0  0  0  0  0  0  0  0  0  0  0  0
   23.9500   16.7930   12.0270 C   0  0  0  0  0  0  0  0  0  0  0  0
   25.1770   17.1840   11.5270 C   0  0  0  0  0  0  0  0  0  0  0  0
   25.5630   16.9000   10.2320 C   0  0  0  0  0  0  0  0  0  0  0  0
   25.8760   17.9040   12.5910 C   0  0  0  0  0  0  0  0  0  0  0  0
   26.9630   18.4330   12.4610 O   0  0  0  0  0  0  0  0  0  0  0  0
   25.0610   17.8700   13.6900 N   0  0  0  0  0  0  0  0  0  0  0  0
   25.3040   18.5890   14.9320 C   0  0  1  0  0  0  0  0  0  0  0  0
   26.3680   17.9580   15.8250 C   0  0  0  0  0  0  0  0  0  0  0  0
   26.5010   18.7780   17.1000 C   0  0  0  0  0  0  0  0  0  0  0  0
   26.8180   20.2230   16.7930 C   0  0  0  0  0  0  0  0  0  0  0  0
   27.4310   20.9410   17.5770 O   0  0  0  0  0  0  0  0  0  0  0  0
   26.3320   20.7230   15.6100 N   0  0  0  0  0  0  0  0  0  0  0  0
   25.6740   20.0400   14.6100 C   0  0  0  0  0  0  0  0  0  0  0  0
   25.3640   20.6120   13.5670 O   0  0  0  0  0  0  0  0  0  0  0  0
   23.8690   17.2570   13.4100 C   0  0  0  0  0  0  0  0  0  0  0  0
   22.9040   17.0970   14.1330 O   0  0  0  0  0  0  0  0  0  0  0  0
   26.0270   14.9860    7.6460 C   0  0  0  0  0  0  0  0  0  0  0  0
   26.0270   15.0280    6.2740 N   0  0  0  0  0  0  0  0  0  0  0  0
   26.8160   14.3240    5.3660 C   0  0  0  0  0  0  0  0  0  0  0  0
   25.1540   11.4530    3.9480 C   0  0  0  0  0  0  0  0  0  0  0  0
   24.6550   11.1020    5.1150 N   0  0  0  0  0  0  0  0  0  0  0  0
   24.7464    9.1845    8.6779 H   0  0  0  0  0  0  0  0  0  0  0  0
   23.8606    9.4192    7.1330 H   0  0  0  0  0  0  0  0  0  0  0  0
   25.4708    8.6230    7.1330 H   0  0  0  0  0  0  0  0  0  0  0  0
   24.8916   11.5264    7.8921 H   0  0  0  0  0  0  0  0  0  0  0  0
   26.5133   10.7075    7.9036 H   0  0  0  0  0  0  0  0  0  0  0  0
   27.8872   11.5929    5.7670 H   0  0  0  0  0  0  0  0  0  0  0  0
   25.4670   15.6621    2.5449 H   0  0  0  0  0  0  0  0  0  0  0  0
   24.1048   16.8770    4.1590 H   0  0  0  0  0  0  0  0  0  0  0  0
   22.7059   15.2375    9.3056 H   0  0  0  0  0  0  0  0  0  0  0  0
   22.0640   15.7900   11.6691 H   0  0  0  0  0  0  0  0  0  0  0  0
   26.5437   17.2196    9.8498 H   0  0  0  0  0  0  0  0  0  0  0  0
   24.3698   18.5409   15.5107 H   0  0  0  0  0  0  0  0  0  0  0  0
   26.0729   16.9291   16.0783 H   0  0  0  0  0  0  0  0  0  0  0  0
   27.3318   17.9393   15.2952 H   0  0  0  0  0  0  0  0  0  0  0  0
   25.5540   18.7296   17.6576 H   0  0  0  0  0  0  0  0  0  0  0  0
   27.3257   18.3609   17.6965 H   0  0  0  0  0  0  0  0  0  0  0  0
   26.4767   21.7303   15.4508 H   0  0  0  0  0  0  0  0  0  0  0  0
   26.6699   14.3694    8.2913 H   0  0  0  0  0  0  0  0  0  0  0  0
   27.5745   13.6107    5.7207 H   0  0  0  0  0  0  0  0  0  0  0  0
   24.5652   11.5829    3.0280 H   0  0  0  0  0  0  0  0  0  0  0  0
  1  2  1  0
  2  3  1  0
  3  4  2  0
  4  5  1  0
  5  6  1  0
  6  7  2  0
  6  8  2  0
  6  9  1  0
  9 10  1  0
 10 11  1  0
 11 12  2  0
 12 13  1  0
 13 14  2  0
 14 15  1  0
 15 16  1  0
 16 17  2  0
 17 18  1  0
 18 19  2  0
 19 20  1  0
 20 21  2  0
 20 22  1  0
 22 23  2  0
 22 24  1  0
 24 25  1  0
 25 26  1  0
 26 27  1  0
 27 28  1  0
 28 29  2  0
 28 30  1  0
 30 31  1  0
 31 32  2  0
 24 33  1  0
 33 34  2  0
 15 35  2  0
 35 36  1  0
 36 37  1  0
  5 38  1  0
 38 39  2  0
 39  3  1  0
 37 10  2  0
 36 13  1  0
 21 16  1  0
 31 25  1  0
 33 19  1  0
  1 40  1  0
  1 41  1  0
  1 42  1  0
  2 43  1  0
  2 44  1  0
  4 45  1  0
 11 46  1  0
 12 47  1  0
 17 48  1  0
 18 49  1  0
 21 50  1  0
 25 51  1  1
 26 52  1  0
 26 53  1  0
 27 54  1  0
 27 55  1  0
 30 56  1  0
 35 57  1  0
 37 58  1  0
 38 59  1  0
M  END
>  <meeko>  (94) 
{"is_sidechain": [true], "free_energy": -14.34, "intermolecular_energy": 0.0, "internal_energy": -14.34, "cluster_size": 20, "cluster_id": 1, "rank_in_cluster": 1}

>  <_RMSD_MCS_to_ref>  (94) 
0.5618562489146517

$$$$
ligand
     RDKit          3D

 57 61  0  0  0  0  0  0  0  0999 V2000
   24.8540    9.4020    7.6050 C   0  0  0  0  0  0  0  0  0  0  0  0
   25.5230   10.7550    7.4270 C   0  0  0  0  0  0  0  0  0  0  0  0
   24.8380   11.5970    6.4070 C   0  0  0  0  0  0  0  0  0  0  0  0
   25.2790   11.9670    5.1520 C   0  0  0  0  0  0  0  0  0  0  0  0
   24.2590   12.7230    4.6450 N   0  0  0  0  0  0  0  0  0  0  0  0
   24.3610   13.7270    3.2970 S   0  0  0  0  0  6  0  0  0  0  0  0
   23.0500   14.3290    3.1560 O   0  0  0  0  0  0  0  0  0  0  0  0
   24.9700   12.9190    2.2570 O   0  0  0  0  0  0  0  0  0  0  0  0
   25.5030   14.9750    3.7790 C   0  0  0  0  0  0  0  0  0  0  0  0
   26.4750   15.3980    2.8970 C   0  0  0  0  0  0  0  0  0  0  0  0
   27.3800   16.3440    3.2550 N   0  0  0  0  0  0  0  0  0  0  0  0
   27.2640   16.8360    4.5210 C   0  0  0  0  0  0  0  0  0  0  0  0
   26.2800   16.3960    5.3950 C   0  0  0  0  0  0  0  0  0  0  0  0
   26.1810   16.9440    6.7790 C   0  0  0  0  0  0  0  0  0  0  0  0
   26.7810   17.9710    7.0640 O   0  0  0  0  0  0  0  0  0  0  0  0
   25.3820   16.1800    7.6120 N   0  0  0  0  0  0  0  0  0  0  0  0
   25.0570   16.4160    8.9600 C   0  0  0  0  0  0  0  0  0  0  0  0
   23.8300   15.8760    9.4200 C   0  0  0  0  0  0  0  0  0  0  0  0
   23.4050   16.0480   10.7430 C   0  0  0  0  0  0  0  0  0  0  0  0
   24.2330   16.7650   11.5790 C   0  0  0  0  0  0  0  0  0  0  0  0
   25.4290   17.2990   11.1380 C   0  0  0  0  0  0  0  0  0  0  0  0
   25.8700   17.1450    9.8360 C   0  0  0  0  0  0  0  0  0  0  0  0
   26.0360   18.0020   12.2660 C   0  0  0  0  0  0  0  0  0  0  0  0
   27.0740   18.6320   12.2030 O   0  0  0  0  0  0  0  0  0  0  0  0
   25.2060   17.8190   13.3380 N   0  0  0  0  0  0  0  0  0  0  0  0
   25.3560   18.4700   14.6300 C   0  0  1  0  0  0  0  0  0  0  0  0
   26.4260   17.8520   15.5260 C   0  0  0  0  0  0  0  0  0  0  0  0
   26.4580   18.5940   16.8540 C   0  0  0  0  0  0  0  0  0  0  0  0
   26.6910   20.0740   16.6500 C   0  0  0  0  0  0  0  0  0  0  0  0
   27.2260   20.7750   17.5030 O   0  0  0  0  0  0  0  0  0  0  0  0
   26.2170   20.6160   15.4810 N   0  0  0  0  0  0  0  0  0  0  0  0
   25.6420   19.9600   14.4160 C   0  0  0  0  0  0  0  0  0  0  0  0
   25.3340   20.5780   13.3970 O   0  0  0  0  0  0  0  0  0  0  0  0
   24.0820   17.1220   12.9870 C   0  0  0  0  0  0  0  0  0  0  0  0
   23.1220   16.8240   13.6710 O   0  0  0  0  0  0  0  0  0  0  0  0
   25.3660   15.4480    5.0470 N   0  0  0  0  0  0  0  0  0  0  0  0
   23.2670   12.8070    5.5720 C   0  0  0  0  0  0  0  0  0  0  0  0
   23.5950   12.1460    6.6630 N   0  0  0  0  0  0  0  0  0  0  0  0
   24.7464    9.1845    8.6779 H   0  0  0  0  0  0  0  0  0  0  0  0
   23.8606    9.4192    7.1330 H   0  0  0  0  0  0  0  0  0  0  0  0
   25.4708    8.6230    7.1330 H   0  0  0  0  0  0  0  0  0  0  0  0
   25.5089   11.2856    8.3905 H   0  0  0  0  0  0  0  0  0  0  0  0
   26.5516   10.5776    7.0798 H   0  0  0  0  0  0  0  0  0  0  0  0
   26.2340   11.7115    4.6697 H   0  0  0  0  0  0  0  0  0  0  0  0
   26.5175   14.9621    1.8880 H   0  0  0  0  0  0  0  0  0  0  0  0
   27.9726   17.6059    4.8604 H   0  0  0  0  0  0  0  0  0  0  0  0
   24.9743   15.3324    7.1921 H   0  0  0  0  0  0  0  0  0  0  0  0
   23.1971   15.3088    8.7217 H   0  0  0  0  0  0  0  0  0  0  0  0
   22.4522   15.6292   11.0992 H   0  0  0  0  0  0  0  0  0  0  0  0
   26.8238   17.5791    9.5015 H   0  0  0  0  0  0  0  0  0  0  0  0
   24.4055   18.3246   15.1642 H   0  0  0  0  0  0  0  0  0  0  0  0
   26.1905   16.7921   15.7026 H   0  0  0  0  0  0  0  0  0  0  0  0
   27.4077   17.9299   15.0360 H   0  0  0  0  0  0  0  0  0  0  0  0
   25.4964   18.4501   17.3683 H   0  0  0  0  0  0  0  0  0  0  0  0
   27.2854   18.1918   17.4570 H   0  0  0  0  0  0  0  0  0  0  0  0
   26.3020   21.6384   15.3897 H   0  0  0  0  0  0  0  0  0  0  0  0
   22.3218   13.3515    5.4301 H   0  0  0  0  0  0  0  0  0  0  0  0
  1  2  1  0
  2  3  1  0
  3  4  2  0
  4  5  1  0
  5  6  1  0
  6  7  2  0
  6  8  2  0
  6  9  1  0
  9 10  2  0
 10 11  1  0
 11 12  2  0
 12 13  1  0
 13 14  1  0
 14 15  2  0
 14 16  1  0
 16 17  1  0
 17 18  2  0
 18 19  1  0
 19 20  2  0
 20 21  1  0
 21 22  2  0
 21 23  1  0
 23 24  2  0
 23 25  1  0
 25 26  1  0
 26 27  1  0
 27 28  1  0
 28 29  1  0
 29 30  2  0
 29 31  1  0
 31 32  1  0
 32 33  2  0
 25 34  1  0
 34 35  2  0
 13 36  2  0
  5 37  1  0
 37 38  2  0
 38  3  1  0
 36  9  1  0
 22 17  1  0
 32 26  1  0
 34 20  1  0
  1 39  1  0
  1 40  1  0
  1 41  1  0
  2 42  1  0
  2 43  1  0
  4 44  1  0
 10 45  1  0
 12 46  1  0
 16 47  1  0
 18 48  1  0
 19 49  1  0
 22 50  1  0
 26 51  1  1
 27 52  1  0
 27 53  1  0
 28 54  1  0
 28 55  1  0
 31 56  1  0
 37 57  1  0
M  END
>  <meeko>  (95) 
{"is_sidechain": [true], "free_energy": -14.32, "intermolecular_energy": 0.0, "internal_energy": -14.32, "cluster_size": 20, "cluster_id": 1, "rank_in_cluster": 1}

>  <_RMSD_MCS_to_ref>  (95) 
0.5206320677791552

$$$$
ligand
     RDKit          3D

 60 65  0  0  0  0  0  0  0  0999 V2000
   24.8540    9.4020    7.6050 C   0  0  0  0  0  0  0  0  0  0  0  0
   25.5230   10.7550    7.4270 C   0  0  0  0  0  0  0  0  0  0  0  0
   24.7220   11.6700    6.5670 C   0  0  0  0  0  0  0  0  0  0  0  0
   24.8600   11.9410    5.2190 C   0  0  0  0  0  0  0  0  0  0  0  0
   23.8620   12.8360    4.9520 N   0  0  0  0  0  0  0  0  0  0  0  0
   23.7100   13.7340    3.5310 S   0  0  0  0  0  6  0  0  0  0  0  0
   22.2830   13.9480    3.3690 O   0  0  0  0  0  0  0  0  0  0  0  0
   24.4740   12.9900    2.5490 O   0  0  0  0  0  0  0  0  0  0  0  0
   24.4680   15.1640    3.7880 O   0  0  0  0  0  0  0  0  0  0  0  0
   25.7700   15.2100    4.2530 C   0  0  0  0  0  0  0  0  0  0  0  0
   26.8310   15.0310    3.4400 C   0  0  0  0  0  0  0  0  0  0  0  0
   28.1740   15.0810    3.9980 C   0  0  0  0  0  0  0  0  0  0  0  0
   28.3840   15.2960    5.3110 C   0  0  0  0  0  0  0  0  0  0  0  0
   27.2740   15.4780    6.1820 C   0  0  0  0  0  0  0  0  0  0  0  0
   27.2150   15.7250    7.4740 N   0  0  0  0  0  0  0  0  0  0  0  0
   25.8740   15.8270    7.7700 C   0  0  0  0  0  0  0  0  0  0  0  0
   25.3670   16.1420    9.0960 C   0  0  0  0  0  0  0  0  0  0  0  0
   24.0900   15.6700    9.4830 C   0  0  0  0  0  0  0  0  0  0  0  0
   23.5590   15.9360   10.7550 C   0  0  0  0  0  0  0  0  0  0  0  0
   24.3280   16.6700   11.6380 C   0  0  0  0  0  0  0  0  0  0  0  0
   25.5850   17.1270   11.2550 C   0  0  0  0  0  0  0  0  0  0  0  0
   26.1270   16.8870   10.0070 C   0  0  0  0  0  0  0  0  0  0  0  0
   26.1690   17.8610   12.3820 C   0  0  0  0  0  0  0  0  0  0  0  0
   27.2300   18.4550   12.3430 O   0  0  0  0  0  0  0  0  0  0  0  0
   25.2760   17.7500   13.4370 N   0  0  0  0  0  0  0  0  0  0  0  0
   25.3670   18.5130   14.6770 C   0  0  1  0  0  0  0  0  0  0  0  0
   26.3660   17.9370   15.6800 C   0  0  0  0  0  0  0  0  0  0  0  0
   26.3380   18.7690   16.9530 C   0  0  0  0  0  0  0  0  0  0  0  0
   26.6300   20.2230   16.6640 C   0  0  0  0  0  0  0  0  0  0  0  0
   27.0750   20.9840   17.5190 O   0  0  0  0  0  0  0  0  0  0  0  0
   26.2980   20.6810   15.4140 N   0  0  0  0  0  0  0  0  0  0  0  0
   25.6760   19.9930   14.3970 C   0  0  0  0  0  0  0  0  0  0  0  0
   25.3100   20.5830   13.3820 O   0  0  0  0  0  0  0  0  0  0  0  0
   24.0310   17.1100   13.0310 C   0  0  0  0  0  0  0  0  0  0  0  0
   25.1120   15.5860    6.6470 C   0  0  0  0  0  0  0  0  0  0  0  0
   26.0050   15.4090    5.6200 N   0  0  0  0  0  0  0  0  0  0  0  0
   23.2070   13.1280    6.1040 C   0  0  0  0  0  0  0  0  0  0  0  0
   23.6940   12.4210    7.1030 N   0  0  0  0  0  0  0  0  0  0  0  0
   24.7464    9.1845    8.6779 H   0  0  0  0  0  0  0  0  0  0  0  0
   23.8606    9.4192    7.1330 H   0  0  0  0  0  0  0  0  0  0  0  0
   25.4708    8.6230    7.1330 H   0  0  0  0  0  0  0  0  0  0  0  0
   25.6509   11.2197    8.4158 H   0  0  0  0  0  0  0  0  0  0  0  0
   26.4922   10.5901    6.9336 H   0  0  0  0  0  0  0  0  0  0  0  0
   25.6035   11.5301    4.5202 H   0  0  0  0  0  0  0  0  0  0  0  0
   26.6826   14.8489    2.3654 H   0  0  0  0  0  0  0  0  0  0  0  0
   29.0380   14.9399    3.3319 H   0  0  0  0  0  0  0  0  0  0  0  0
   29.4093   15.3307    5.7080 H   0  0  0  0  0  0  0  0  0  0  0  0
   23.4981   15.0793    8.7683 H   0  0  0  0  0  0  0  0  0  0  0  0
   22.5612   15.5713   11.0402 H   0  0  0  0  0  0  0  0  0  0  0  0
   27.1229   17.2685    9.7375 H   0  0  0  0  0  0  0  0  0  0  0  0
   24.3757   18.4347   15.1473 H   0  0  0  0  0  0  0  0  0  0  0  0
   26.0931   16.8975   15.9145 H   0  0  0  0  0  0  0  0  0  0  0  0
   27.3770   17.9602   15.2472 H   0  0  0  0  0  0  0  0  0  0  0  0
   25.3419   18.6879   17.4125 H   0  0  0  0  0  0  0  0  0  0  0  0
   27.1127   18.3877   17.6345 H   0  0  0  0  0  0  0  0  0  0  0  0
   26.5446   21.6604   15.2117 H   0  0  0  0  0  0  0  0  0  0  0  0
   23.7975   16.2509   13.6771 H   0  0  0  0  0  0  0  0  0  0  0  0
   23.1560   17.7727   13.1023 H   0  0  0  0  0  0  0  0  0  0  0  0
   24.0145   15.5442    6.5864 H   0  0  0  0  0  0  0  0  0  0  0  0
   22.3847   13.8534    6.1913 H   0  0  0  0  0  0  0  0  0  0  0  0
  1  2  1  0
  2  3  1  0
  3  4  2  0
  4  5  1  0
  5  6  1  0
  6  7  2  0
  6  8  2  0
  6  9  1  0
  9 10  1  0
 10 11  2  0
 11 12  1  0
 12 13  2  0
 13 14  1  0
 14 15  2  0
 15 16  1  0
 16 17  1  0
 17 18  2  0
 18 19  1  0
 19 20  2  0
 20 21  1  0
 21 22  2  0
 21 23  1  0
 23 24  2  0
 23 25  1  0
 25 26  1  0
 26 27  1  0
 27 28  1  0
 28 29  1  0
 29 30  2  0
 29 31  1  0
 31 32  1  0
 32 33  2  0
 25 34  1  0
 16 35  2  0
 35 36  1  0
  5 37  1  0
 37 38  2  0
 38  3  1  0
 36 10  1  0
 36 14  1  0
 22 17  1  0
 32 26  1  0
 34 20  1  0
  1 39  1  0
  1 40  1  0
  1 41  1  0
  2 42  1  0
  2 43  1  0
  4 44  1  0
 11 45  1  0
 12 46  1  0
 13 47  1  0
 18 48  1  0
 19 49  1  0
 22 50  1  0
 26 51  1  1
 27 52  1  0
 27 53  1  0
 28 54  1  0
 28 55  1  0
 31 56  1  0
 34 57  1  0
 34 58  1  0
 35 59  1  0
 37 60  1  0
M  END
>  <meeko>  (96) 
{"is_sidechain": [true], "free_energy": -14.31, "intermolecular_energy": 0.0, "internal_energy": -14.31, "cluster_size": 14, "cluster_id": 1, "rank_in_cluster": 1}

>  <_RMSD_MCS_to_ref>  (96) 
0.5529911592622625

$$$$
ligand
     RDKit          3D

 60 65  0  0  0  0  0  0  0  0999 V2000
   24.8540    9.4020    7.6050 C   0  0  0  0  0  0  0  0  0  0  0  0
   25.5230   10.7550    7.4270 C   0  0  0  0  0  0  0  0  0  0  0  0
   24.8280   11.5970    6.4160 C   0  0  0  0  0  0  0  0  0  0  0  0
   25.3210   12.1270    5.2390 C   0  0  0  0  0  0  0  0  0  0  0  0
   24.2510   12.7760    4.6900 N   0  0  0  0  0  0  0  0  0  0  0  0
   24.3060   13.8190    3.3670 S   0  0  0  0  0  6  0  0  0  0  0  0
   22.9580   13.8020    2.8300 O   0  0  0  0  0  0  0  0  0  0  0  0
   25.4420   13.3630    2.5870 O   0  0  0  0  0  0  0  0  0  0  0  0
   24.6230   15.2970    3.9780 O   0  0  0  0  0  0  0  0  0  0  0  0
   25.4810   15.4920    5.0330 C   0  0  0  0  0  0  0  0  0  0  0  0
   26.8230   15.6470    4.6740 C   0  0  0  0  0  0  0  0  0  0  0  0
   27.8190   15.8500    5.6340 C   0  0  0  0  0  0  0  0  0  0  0  0
   27.4120   15.8940    6.9690 C   0  0  0  0  0  0  0  0  0  0  0  0
   28.1170   16.0640    8.1260 N   0  0  0  0  0  0  0  0  0  0  0  0
   27.3720   16.0290    9.2400 N   0  0  0  0  0  0  0  0  0  0  0  0
   26.1130   15.8690    8.7960 C   0  0  0  0  0  0  0  0  0  0  0  0
   24.9900   15.8220    9.7300 C   0  0  0  0  0  0  0  0  0  0  0  0
   23.8320   15.0780    9.4340 C   0  0  0  0  0  0  0  0  0  0  0  0
   22.7530   15.0050   10.3380 C   0  0  0  0  0  0  0  0  0  0  0  0
   22.8060   15.6770   11.5570 C   0  0  0  0  0  0  0  0  0  0  0  0
   23.9410   16.4180   11.8230 C   0  0  0  0  0  0  0  0  0  0  0  0
   25.0180   16.5060   10.9390 C   0  0  0  0  0  0  0  0  0  0  0  0
   26.0830   17.3710   11.5300 C   0  0  0  0  0  0  0  0  0  0  0  0
   25.4860   17.8040   12.7880 N   0  0  0  0  0  0  0  0  0  0  0  0
   26.2370   18.4720   13.8440 C   0  0  2  0  0  0  0  0  0  0  0  0
   26.0250   17.8220   15.2090 C   0  0  0  0  0  0  0  0  0  0  0  0
   26.9030   18.5150   16.2400 C   0  0  0  0  0  0  0  0  0  0  0  0
   26.6320   20.0010   16.2750 C   0  0  0  0  0  0  0  0  0  0  0  0
   26.6750   20.6520   17.3150 O   0  0  0  0  0  0  0  0  0  0  0  0
   26.3510   20.6020   15.0750 N   0  0  0  0  0  0  0  0  0  0  0  0
   25.8960   19.9680   13.9400 C   0  0  0  0  0  0  0  0  0  0  0  0
   25.2670   20.5970   13.0930 O   0  0  0  0  0  0  0  0  0  0  0  0
   24.2580   17.2070   13.0180 C   0  0  0  0  0  0  0  0  0  0  0  0
   23.5550   17.2950   14.0050 O   0  0  0  0  0  0  0  0  0  0  0  0
   26.0880   15.7520    7.3680 C   0  0  0  0  0  0  0  0  0  0  0  0
   25.1010   15.5320    6.3800 C   0  0  0  0  0  0  0  0  0  0  0  0
   23.2020   12.7050    5.5480 C   0  0  0  0  0  0  0  0  0  0  0  0
   23.5120   11.9730    6.5980 N   0  0  0  0  0  0  0  0  0  0  0  0
   24.7464    9.1845    8.6779 H   0  0  0  0  0  0  0  0  0  0  0  0
   23.8606    9.4192    7.1330 H   0  0  0  0  0  0  0  0  0  0  0  0
   25.4708    8.6230    7.1330 H   0  0  0  0  0  0  0  0  0  0  0  0
   25.5171   11.2828    8.3921 H   0  0  0  0  0  0  0  0  0  0  0  0
   26.5496   10.5801    7.0727 H   0  0  0  0  0  0  0  0  0  0  0  0
   26.3413   12.0452    4.8361 H   0  0  0  0  0  0  0  0  0  0  0  0
   27.1022   15.6083    3.6107 H   0  0  0  0  0  0  0  0  0  0  0  0
   28.8751   15.9696    5.3505 H   0  0  0  0  0  0  0  0  0  0  0  0
   29.1369   16.2073    8.1416 H   0  0  0  0  0  0  0  0  0  0  0  0
   23.7678   14.5416    8.4758 H   0  0  0  0  0  0  0  0  0  0  0  0
   21.8627   14.4131   10.0790 H   0  0  0  0  0  0  0  0  0  0  0  0
   21.9776   15.6199   12.2785 H   0  0  0  0  0  0  0  0  0  0  0  0
   27.0060   16.7990   11.7056 H   0  0  0  0  0  0  0  0  0  0  0  0
   26.3778   18.2061   10.8775 H   0  0  0  0  0  0  0  0  0  0  0  0
   27.2952   18.3643   13.5634 H   0  0  0  0  0  0  0  0  0  0  0  0
   24.9691   17.9187   15.5016 H   0  0  0  0  0  0  0  0  0  0  0  0
   26.2931   16.7566   15.1544 H   0  0  0  0  0  0  0  0  0  0  0  0
   26.6961   18.0887   17.2327 H   0  0  0  0  0  0  0  0  0  0  0  0
   27.9561   18.3585   15.9636 H   0  0  0  0  0  0  0  0  0  0  0  0
   26.4931   21.6205   15.0170 H   0  0  0  0  0  0  0  0  0  0  0  0
   24.0478   15.3940    6.6659 H   0  0  0  0  0  0  0  0  0  0  0  0
   22.2282   13.1912    5.3886 H   0  0  0  0  0  0  0  0  0  0  0  0
  1  2  1  0
  2  3  1  0
  3  4  2  0
  4  5  1  0
  5  6  1  0
  6  7  2  0
  6  8  2  0
  6  9  1  0
  9 10  1  0
 10 11  2  0
 11 12  1  0
 12 13  2  0
 13 14  1  0
 14 15  1  0
 15 16  2  0
 16 17  1  0
 17 18  2  0
 18 19  1  0
 19 20  2  0
 20 21  1  0
 21 22  2  0
 22 23  1  0
 23 24  1  0
 24 25  1  0
 25 26  1  0
 26 27  1  0
 27 28  1  0
 28 29  2  0
 28 30  1  0
 30 31  1  0
 31 32  2  0
 24 33  1  0
 33 34  2  0
 16 35  1  0
 35 36  2  0
  5 37  1  0
 37 38  2  0
 38  3  1  0
 36 10  1  0
 35 13  1  0
 22 17  1  0
 31 25  1  0
 33 21  1  0
  1 39  1  0
  1 40  1  0
  1 41  1  0
  2 42  1  0
  2 43  1  0
  4 44  1  0
 11 45  1  0
 12 46  1  0
 14 47  1  0
 18 48  1  0
 19 49  1  0
 20 50  1  0
 23 51  1  0
 23 52  1  0
 25 53  1  6
 26 54  1  0
 26 55  1  0
 27 56  1  0
 27 57  1  0
 30 58  1  0
 36 59  1  0
 37 60  1  0
M  END
>  <meeko>  (97) 
{"is_sidechain": [true], "free_energy": -14.31, "intermolecular_energy": 0.0, "internal_energy": -14.31, "cluster_size": 14, "cluster_id": 1, "rank_in_cluster": 1}

>  <_RMSD_MCS_to_ref>  (97) 
0.8744254621686672

$$$$
ligand
     RDKit          3D

 62 66  0  0  0  0  0  0  0  0999 V2000
   24.8540    9.4020    7.6050 C   0  0  0  0  0  0  0  0  0  0  0  0
   25.5230   10.7550    7.4270 C   0  0  0  0  0  0  0  0  0  0  0  0
   24.7230   11.6680    6.5670 C   0  0  0  0  0  0  0  0  0  0  0  0
   24.9030   11.9880    5.2350 C   0  0  0  0  0  0  0  0  0  0  0  0
   23.8960   12.8700    4.9640 N   0  0  0  0  0  0  0  0  0  0  0  0
   23.4870   13.4510    3.4410 S   0  0  0  0  0  6  0  0  0  0  0  0
   22.1750   14.0590    3.6000 O   0  0  0  0  0  0  0  0  0  0  0  0
   23.7190   12.3610    2.5150 O   0  0  0  0  0  0  0  0  0  0  0  0
   24.6860   14.7240    3.1480 C   0  0  0  0  0  0  0  0  0  0  0  0
   24.8880   15.1110    1.8110 C   0  0  0  0  0  0  0  0  0  0  0  0
   25.8450   16.0690    1.5010 C   0  0  0  0  0  0  0  0  0  0  0  0
   26.5940   16.6460    2.5190 C   0  0  0  0  0  0  0  0  0  0  0  0
   26.3830   16.2730    3.8520 C   0  0  0  0  0  0  0  0  0  0  0  0
   25.4250   15.3100    4.1960 C   0  0  0  0  0  0  0  0  0  0  0  0
   25.1770   14.9600    5.5450 N   0  0  0  0  0  0  0  0  0  0  0  0
   24.8870   15.7950    6.6140 C   0  0  0  0  0  0  0  0  0  0  0  0
   24.9130   17.0170    6.5710 O   0  0  0  0  0  0  0  0  0  0  0  0
   24.5830   15.0390    7.7370 N   0  0  0  0  0  0  0  0  0  0  0  0
   24.3290   15.5040    9.0450 C   0  0  0  0  0  0  0  0  0  0  0  0
   23.1830   14.9850    9.6920 C   0  0  0  0  0  0  0  0  0  0  0  0
   22.8430   15.3730   10.9920 C   0  0  0  0  0  0  0  0  0  0  0  0
   23.6710   16.2820   11.6160 C   0  0  0  0  0  0  0  0  0  0  0  0
   24.8080   16.8000   11.0040 C   0  0  0  0  0  0  0  0  0  0  0  0
   25.1520   16.4170    9.7170 C   0  0  0  0  0  0  0  0  0  0  0  0
   25.5100   17.7270   11.9380 C   0  0  0  0  0  0  0  0  0  0  0  0
   24.6080   17.7730   13.0810 N   0  0  0  0  0  0  0  0  0  0  0  0
   25.0060   18.4050   14.3340 C   0  0  1  0  0  0  0  0  0  0  0  0
   26.2170   17.7490   14.9970 C   0  0  0  0  0  0  0  0  0  0  0  0
   26.5050   18.4430   16.3190 C   0  0  0  0  0  0  0  0  0  0  0  0
   26.7240   19.9250   16.1230 C   0  0  0  0  0  0  0  0  0  0  0  0
   27.3630   20.6030   16.9230 O   0  0  0  0  0  0  0  0  0  0  0  0
   26.1000   20.5030   15.0460 N   0  0  0  0  0  0  0  0  0  0  0  0
   25.2440   19.9120   14.1460 C   0  0  0  0  0  0  0  0  0  0  0  0
   24.6420   20.5970   13.3190 O   0  0  0  0  0  0  0  0  0  0  0  0
   23.5720   16.8590   12.9610 C   0  0  0  0  0  0  0  0  0  0  0  0
   22.7330   16.5510   13.7830 O   0  0  0  0  0  0  0  0  0  0  0  0
   23.1310   13.0290    6.0740 C   0  0  0  0  0  0  0  0  0  0  0  0
   23.6150   12.3210    7.0720 N   0  0  0  0  0  0  0  0  0  0  0  0
   24.7464    9.1845    8.6779 H   0  0  0  0  0  0  0  0  0  0  0  0
   23.8606    9.4192    7.1330 H   0  0  0  0  0  0  0  0  0  0  0  0
   25.4708    8.6230    7.1330 H   0  0  0  0  0  0  0  0  0  0  0  0
   25.6501   11.2202    8.4156 H   0  0  0  0  0  0  0  0  0  0  0  0
   26.4928   10.5903    6.9347 H   0  0  0  0  0  0  0  0  0  0  0  0
   25.6795   11.6173    4.5497 H   0  0  0  0  0  0  0  0  0  0  0  0
   24.2877   14.6547    1.0101 H   0  0  0  0  0  0  0  0  0  0  0  0
   26.0089   16.3691    0.4555 H   0  0  0  0  0  0  0  0  0  0  0  0
   27.3571   17.4002    2.2764 H   0  0  0  0  0  0  0  0  0  0  0  0
   26.9813   16.7454    4.6450 H   0  0  0  0  0  0  0  0  0  0  0  0
   25.2171   13.9537    5.7610 H   0  0  0  0  0  0  0  0  0  0  0  0
   24.5374   14.0192    7.6000 H   0  0  0  0  0  0  0  0  0  0  0  0
   22.5463   14.2615    9.1618 H   0  0  0  0  0  0  0  0  0  0  0  0
   21.9521   14.9698   11.4957 H   0  0  0  0  0  0  0  0  0  0  0  0
   26.0531   16.8218    9.2331 H   0  0  0  0  0  0  0  0  0  0  0  0
   26.4947   17.3300   12.2255 H   0  0  0  0  0  0  0  0  0  0  0  0
   25.7125   18.7161   11.5014 H   0  0  0  0  0  0  0  0  0  0  0  0
   24.1599   18.2570   15.0211 H   0  0  0  0  0  0  0  0  0  0  0  0
   26.0045   16.6852   15.1793 H   0  0  0  0  0  0  0  0  0  0  0  0
   27.0918   17.8385   14.3361 H   0  0  0  0  0  0  0  0  0  0  0  0
   25.6512   18.2931   16.9962 H   0  0  0  0  0  0  0  0  0  0  0  0
   27.4209   18.0096   16.7471 H   0  0  0  0  0  0  0  0  0  0  0  0
   26.2969   21.5023   14.8928 H   0  0  0  0  0  0  0  0  0  0  0  0
   22.2325   13.6610    6.1312 H   0  0  0  0  0  0  0  0  0  0  0  0
  1  2  1  0
  2  3  1  0
  3  4  2  0
  4  5  1  0
  5  6  1  0
  6  7  2  0
  6  8  2  0
  6  9  1  0
  9 10  2  0
 10 11  1  0
 11 12  2  0
 12 13  1  0
 13 14  2  0
 14 15  1  0
 15 16  1  0
 16 17  2  0
 16 18  1  0
 18 19  1  0
 19 20  2  0
 20 21  1  0
 21 22  2  0
 22 23  1  0
 23 24  2  0
 23 25  1  0
 25 26  1  0
 26 27  1  0
 27 28  1  0
 28 29  1  0
 29 30  1  0
 30 31  2  0
 30 32  1  0
 32 33  1  0
 33 34  2  0
 26 35  1  0
 35 36  2  0
  5 37  1  0
 37 38  2  0
 38  3  1  0
 14  9  1  0
 24 19  1  0
 33 27  1  0
 35 22  1  0
  1 39  1  0
  1 40  1  0
  1 41  1  0
  2 42  1  0
  2 43  1  0
  4 44  1  0
 10 45  1  0
 11 46  1  0
 12 47  1  0
 13 48  1  0
 15 49  1  0
 18 50  1  0
 20 51  1  0
 21 52  1  0
 24 53  1  0
 25 54  1  0
 25 55  1  0
 27 56  1  1
 28 57  1  0
 28 58  1  0
 29 59  1  0
 29 60  1  0
 32 61  1  0
 37 62  1  0
M  END
>  <meeko>  (98) 
{"is_sidechain": [true], "free_energy": -14.31, "intermolecular_energy": 0.0, "internal_energy": -14.31, "cluster_size": 18, "cluster_id": 1, "rank_in_cluster": 1}

>  <_RMSD_MCS_to_ref>  (98) 
0.46203126397343375

$$$$
ligand
     RDKit          3D

 62 67  0  0  0  0  0  0  0  0999 V2000
   24.8540    9.4020    7.6050 C   0  0  0  0  0  0  0  0  0  0  0  0
   25.5230   10.7550    7.4270 C   0  0  0  0  0  0  0  0  0  0  0  0
   25.1410   11.4080    6.1460 C   0  0  0  0  0  0  0  0  0  0  0  0
   24.4530   12.5900    5.9460 C   0  0  0  0  0  0  0  0  0  0  0  0
   24.3990   12.7160    4.5870 N   0  0  0  0  0  0  0  0  0  0  0  0
   23.5680   13.9160    3.7470 S   0  0  0  0  0  6  0  0  0  0  0  0
   24.0210   13.8330    2.3690 O   0  0  0  0  0  0  0  0  0  0  0  0
   22.1760   13.6530    4.0720 O   0  0  0  0  0  0  0  0  0  0  0  0
   23.9520   15.3680    4.3980 O   0  0  0  0  0  0  0  0  0  0  0  0
   24.9320   15.4340    5.3630 C   0  0  0  0  0  0  0  0  0  0  0  0
   24.5050   15.6860    6.6730 C   0  0  0  0  0  0  0  0  0  0  0  0
   25.4280   15.7550    7.7210 C   0  0  0  0  0  0  0  0  0  0  0  0
   24.9940   16.0370    9.0990 C   0  0  0  0  0  0  0  0  0  0  0  0
   23.7420   15.5670    9.5750 C   0  0  0  0  0  0  0  0  0  0  0  0
   23.2960   15.8250   10.8800 C   0  0  0  0  0  0  0  0  0  0  0  0
   24.1170   16.5580   11.7130 C   0  0  0  0  0  0  0  0  0  0  0  0
   25.3450   17.0200   11.2520 C   0  0  0  0  0  0  0  0  0  0  0  0
   25.8060   16.7840    9.9690 C   0  0  0  0  0  0  0  0  0  0  0  0
   25.9900   17.7650   12.3380 C   0  0  0  0  0  0  0  0  0  0  0  0
   27.0390   18.3700   12.2330 O   0  0  0  0  0  0  0  0  0  0  0  0
   25.1640   17.6520   13.4470 N   0  0  0  0  0  0  0  0  0  0  0  0
   25.3200   18.4320   14.6700 C   0  0  1  0  0  0  0  0  0  0  0  0
   26.3770   17.8780   15.6240 C   0  0  0  0  0  0  0  0  0  0  0  0
   26.4130   18.7270   16.8850 C   0  0  0  0  0  0  0  0  0  0  0  0
   26.6750   20.1790   16.5610 C   0  0  0  0  0  0  0  0  0  0  0  0
   27.1540   20.9560   17.3820 O   0  0  0  0  0  0  0  0  0  0  0  0
   26.2740   20.6160   15.3240 N   0  0  0  0  0  0  0  0  0  0  0  0
   25.6000   19.9100   14.3540 C   0  0  0  0  0  0  0  0  0  0  0  0
   25.1710   20.4830   13.3540 O   0  0  0  0  0  0  0  0  0  0  0  0
   23.9020   17.0010   13.1210 C   0  0  0  0  0  0  0  0  0  0  0  0
   26.7820   15.5480    7.4150 C   0  0  0  0  0  0  0  0  0  0  0  0
   27.2060   15.2700    6.1000 C   0  0  0  0  0  0  0  0  0  0  0  0
   28.5560   15.0510    5.7940 C   0  0  0  0  0  0  0  0  0  0  0  0
   28.9360   14.7710    4.4870 C   0  0  0  0  0  0  0  0  0  0  0  0
   27.9490   14.7170    3.5250 C   0  0  0  0  0  0  0  0  0  0  0  0
   26.6380   14.9230    3.7830 N   0  0  0  0  0  0  0  0  0  0  0  0
   26.2700   15.2050    5.0490 C   0  0  0  0  0  0  0  0  0  0  0  0
   24.9680   11.6260    4.0130 C   0  0  0  0  0  0  0  0  0  0  0  0
   25.4570   10.8200    4.9350 N   0  0  0  0  0  0  0  0  0  0  0  0
   24.7464    9.1845    8.6779 H   0  0  0  0  0  0  0  0  0  0  0  0
   23.8606    9.4192    7.1330 H   0  0  0  0  0  0  0  0  0  0  0  0
   25.4708    8.6230    7.1330 H   0  0  0  0  0  0  0  0  0  0  0  0
   25.2261   11.4091    8.2601 H   0  0  0  0  0  0  0  0  0  0  0  0
   26.6110   10.5937    7.4119 H   0  0  0  0  0  0  0  0  0  0  0  0
   24.0435   13.2718    6.7059 H   0  0  0  0  0  0  0  0  0  0  0  0
   23.4342   15.8309    6.8791 H   0  0  0  0  0  0  0  0  0  0  0  0
   23.1010   14.9818    8.8992 H   0  0  0  0  0  0  0  0  0  0  0  0
   22.3210   15.4541   11.2289 H   0  0  0  0  0  0  0  0  0  0  0  0
   26.7815   17.1706    9.6391 H   0  0  0  0  0  0  0  0  0  0  0  0
   24.3575   18.3513   15.1963 H   0  0  0  0  0  0  0  0  0  0  0  0
   26.1258   16.8399   15.8874 H   0  0  0  0  0  0  0  0  0  0  0  0
   27.3623   17.9030   15.1357 H   0  0  0  0  0  0  0  0  0  0  0  0
   25.4450   18.6439   17.4008 H   0  0  0  0  0  0  0  0  0  0  0  0
   27.2283   18.3616   17.5268 H   0  0  0  0  0  0  0  0  0  0  0  0
   26.5059   21.5926   15.0929 H   0  0  0  0  0  0  0  0  0  0  0  0
   23.7157   16.1425   13.7831 H   0  0  0  0  0  0  0  0  0  0  0  0
   23.0275   17.6568   13.2440 H   0  0  0  0  0  0  0  0  0  0  0  0
   27.5295   15.6040    8.2201 H   0  0  0  0  0  0  0  0  0  0  0  0
   29.3150   15.1008    6.5886 H   0  0  0  0  0  0  0  0  0  0  0  0
   29.9909   14.5978    4.2277 H   0  0  0  0  0  0  0  0  0  0  0  0
   28.2453   14.4937    2.4895 H   0  0  0  0  0  0  0  0  0  0  0  0
   25.0148   11.4406    2.9297 H   0  0  0  0  0  0  0  0  0  0  0  0
  1  2  1  0
  2  3  1  0
  3  4  2  0
  4  5  1  0
  5  6  1  0
  6  7  2  0
  6  8  2  0
  6  9  1  0
  9 10  1  0
 10 11  2  0
 11 12  1  0
 12 13  1  0
 13 14  2  0
 14 15  1  0
 15 16  2  0
 16 17  1  0
 17 18  2  0
 17 19  1  0
 19 20  2  0
 19 21  1  0
 21 22  1  0
 22 23  1  0
 23 24  1  0
 24 25  1  0
 25 26  2  0
 25 27  1  0
 27 28  1  0
 28 29  2  0
 21 30  1  0
 12 31  2  0
 31 32  1  0
 32 33  2  0
 33 34  1  0
 34 35  2  0
 35 36  1  0
 36 37  2  0
  5 38  1  0
 38 39  2  0
 39  3  1  0
 37 10  1  0
 18 13  1  0
 28 22  1  0
 37 32  1  0
 30 16  1  0
  1 40  1  0
  1 41  1  0
  1 42  1  0
  2 43  1  0
  2 44  1  0
  4 45  1  0
 11 46  1  0
 14 47  1  0
 15 48  1  0
 18 49  1  0
 22 50  1  1
 23 51  1  0
 23 52  1  0
 24 53  1  0
 24 54  1  0
 27 55  1  0
 30 56  1  0
 30 57  1  0
 31 58  1  0
 33 59  1  0
 34 60  1  0
 35 61  1  0
 38 62  1  0
M  END
>  <meeko>  (99) 
{"is_sidechain": [true], "free_energy": -14.31, "intermolecular_energy": 0.0, "internal_energy": -14.31, "cluster_size": 19, "cluster_id": 1, "rank_in_cluster": 1}

>  <_RMSD_MCS_to_ref>  (99) 
0.4800526591485093

$$$$
ligand
     RDKit          3D

 62 67  0  0  0  0  0  0  0  0999 V2000
   24.8710    9.6160    7.7820 C   0  0  0  0  0  0  0  0  0  0  0  0
   25.4240   10.9650    7.3490 C   0  0  0  0  0  0  0  0  0  0  0  0
   26.8270   11.1700    7.8020 C   0  0  0  0  0  0  0  0  0  0  0  0
   27.2870   11.6490    9.0130 C   0  0  0  0  0  0  0  0  0  0  0  0
   28.6470   11.6000    8.8980 N   0  0  0  0  0  0  0  0  0  0  0  0
   29.7510   12.2830    9.9720 S   0  0  0  0  0  6  0  0  0  0  0  0
   29.2880   11.8760   11.2860 O   0  0  0  0  0  0  0  0  0  0  0  0
   31.0530   11.8850    9.4690 O   0  0  0  0  0  0  0  0  0  0  0  0
   29.5890   13.8990    9.8160 O   0  0  0  0  0  0  0  0  0  0  0  0
   28.4560   14.4590    9.2870 C   0  0  0  0  0  0  0  0  0  0  0  0
   27.2960   14.7250   10.0030 C   0  0  0  0  0  0  0  0  0  0  0  0
   26.1810   15.2960    9.3660 C   0  0  0  0  0  0  0  0  0  0  0  0
   24.9680   15.5280   10.1610 C   0  0  0  0  0  0  0  0  0  0  0  0
   23.7300   14.9720    9.7810 C   0  0  0  0  0  0  0  0  0  0  0  0
   22.5640   15.1800   10.5410 C   0  0  0  0  0  0  0  0  0  0  0  0
   22.6030   15.9500   11.7030 C   0  0  0  0  0  0  0  0  0  0  0  0
   23.8220   16.4950   12.0600 C   0  0  0  0  0  0  0  0  0  0  0  0
   24.9870   16.3010   11.3170 C   0  0  0  0  0  0  0  0  0  0  0  0
   26.1290   17.0020   11.9760 C   0  0  0  0  0  0  0  0  0  0  0  0
   25.4890   17.6720   13.1010 N   0  0  0  0  0  0  0  0  0  0  0  0
   26.2320   18.2750   14.2010 C   0  0  2  0  0  0  0  0  0  0  0  0
   25.8050   17.7330   15.5610 C   0  0  0  0  0  0  0  0  0  0  0  0
   26.6810   18.3420   16.6450 C   0  0  0  0  0  0  0  0  0  0  0  0
   26.6360   19.8520   16.5990 C   0  0  0  0  0  0  0  0  0  0  0  0
   26.6870   20.5410   17.6130 O   0  0  0  0  0  0  0  0  0  0  0  0
   26.5550   20.4260   15.3560 N   0  0  0  0  0  0  0  0  0  0  0  0
   26.1060   19.8080   14.2100 C   0  0  0  0  0  0  0  0  0  0  0  0
   25.6400   20.4750   13.2890 O   0  0  0  0  0  0  0  0  0  0  0  0
   24.1510   17.3270   13.2200 C   0  0  0  0  0  0  0  0  0  0  0  0
   23.3750   17.6340   14.1050 O   0  0  0  0  0  0  0  0  0  0  0  0
   26.2550   15.6160    7.9800 C   0  0  0  0  0  0  0  0  0  0  0  0
   25.1920   16.1840    7.2450 C   0  0  0  0  0  0  0  0  0  0  0  0
   25.3380   16.4670    5.8910 C   0  0  0  0  0  0  0  0  0  0  0  0
   26.5480   16.1780    5.3000 C   0  0  0  0  0  0  0  0  0  0  0  0
   27.5930   15.6360    5.9610 N   0  0  0  0  0  0  0  0  0  0  0  0
   27.4470   15.3610    7.2670 C   0  0  0  0  0  0  0  0  0  0  0  0
   28.5210   14.7960    7.9350 C   0  0  0  0  0  0  0  0  0  0  0  0
   28.9710   11.1890    7.6440 C   0  0  0  0  0  0  0  0  0  0  0  0
   27.8860   10.8930    6.9610 N   0  0  0  0  0  0  0  0  0  0  0  0
   24.8497    9.5640    8.8806 H   0  0  0  0  0  0  0  0  0  0  0  0
   23.8507    9.4948    7.3893 H   0  0  0  0  0  0  0  0  0  0  0  0
   25.5127    8.8135    7.3893 H   0  0  0  0  0  0  0  0  0  0  0  0
   25.3942   11.0240    6.2510 H   0  0  0  0  0  0  0  0  0  0  0  0
   24.8031   11.7477    7.8093 H   0  0  0  0  0  0  0  0  0  0  0  0
   26.6936   11.9917    9.8735 H   0  0  0  0  0  0  0  0  0  0  0  0
   27.2497   14.4871   11.0760 H   0  0  0  0  0  0  0  0  0  0  0  0
   23.6738   14.3607    8.8683 H   0  0  0  0  0  0  0  0  0  0  0  0
   21.6138   14.7314   10.2157 H   0  0  0  0  0  0  0  0  0  0  0  0
   21.7011   16.1167   12.3103 H   0  0  0  0  0  0  0  0  0  0  0  0
   26.8883   16.2849   12.3214 H   0  0  0  0  0  0  0  0  0  0  0  0
   26.6636   17.6906   11.3051 H   0  0  0  0  0  0  0  0  0  0  0  0
   27.2831   18.0005   14.0283 H   0  0  0  0  0  0  0  0  0  0  0  0
   24.7535   17.9968   15.7476 H   0  0  0  0  0  0  0  0  0  0  0  0
   25.9149   16.6386   15.5714 H   0  0  0  0  0  0  0  0  0  0  0  0
   26.3238   18.0021   17.6283 H   0  0  0  0  0  0  0  0  0  0  0  0
   27.7189   18.0189   16.4769 H   0  0  0  0  0  0  0  0  0  0  0  0
   26.8570   21.4071   15.2721 H   0  0  0  0  0  0  0  0  0  0  0  0
   24.2390   16.4049    7.7479 H   0  0  0  0  0  0  0  0  0  0  0  0
   24.5136   16.9074    5.3109 H   0  0  0  0  0  0  0  0  0  0  0  0
   26.6697   16.4012    4.2298 H   0  0  0  0  0  0  0  0  0  0  0  0
   29.4533   14.6074    7.3825 H   0  0  0  0  0  0  0  0  0  0  0  0
   29.9969   11.1142    7.2543 H   0  0  0  0  0  0  0  0  0  0  0  0
  1  2  1  0
  2  3  1  0
  3  4  2  0
  4  5  1  0
  5  6  1  0
  6  7  2  0
  6  8  2  0
  6  9  1  0
  9 10  1  0
 10 11  2  0
 11 12  1  0
 12 13  1  0
 13 14  2  0
 14 15  1  0
 15 16  2  0
 16 17  1  0
 17 18  2  0
 18 19  1  0
 19 20  1  0
 20 21  1  0
 21 22  1  0
 22 23  1  0
 23 24  1  0
 24 25  2  0
 24 26  1  0
 26 27  1  0
 27 28  2  0
 20 29  1  0
 29 30  2  0
 12 31  2  0
 31 32  1  0
 32 33  2  0
 33 34  1  0
 34 35  2  0
 35 36  1  0
 36 37  2  0
  5 38  1  0
 38 39  2  0
 39  3  1  0
 37 10  1  0
 18 13  1  0
 27 21  1  0
 36 31  1  0
 29 17  1  0
  1 40  1  0
  1 41  1  0
  1 42  1  0
  2 43  1  0
  2 44  1  0
  4 45  1  0
 11 46  1  0
 14 47  1  0
 15 48  1  0
 16 49  1  0
 19 50  1  0
 19 51  1  0
 21 52  1  6
 22 53  1  0
 22 54  1  0
 23 55  1  0
 23 56  1  0
 26 57  1  0
 32 58  1  0
 33 59  1  0
 34 60  1  0
 37 61  1  0
 38 62  1  0
M  END
>  <meeko>  (100) 
{"is_sidechain": [true], "free_energy": -14.29, "intermolecular_energy": 0.0, "internal_energy": -14.29, "cluster_size": 15, "cluster_id": 1, "rank_in_cluster": 1}

>  <_RMSD_MCS_to_ref>  (100) 
1.1251224871591146

$$$$
ligand
     RDKit          3D

 59 64  0  0  0  0  0  0  0  0999 V2000
   24.8540    9.4020    7.6050 C   0  0  0  0  0  0  0  0  0  0  0  0
   25.5230   10.7550    7.4270 C   0  0  0  0  0  0  0  0  0  0  0  0
   24.7510   11.6570    6.5270 C   0  0  0  0  0  0  0  0  0  0  0  0
   25.1100   12.1640    5.2950 C   0  0  0  0  0  0  0  0  0  0  0  0
   24.0210   12.8890    4.8990 N   0  0  0  0  0  0  0  0  0  0  0  0
   23.9830   13.9630    3.5960 S   0  0  0  0  0  6  0  0  0  0  0  0
   22.5760   14.2210    3.3570 O   0  0  0  0  0  0  0  0  0  0  0  0
   24.8130   13.3310    2.5880 O   0  0  0  0  0  0  0  0  0  0  0  0
   24.7280   15.3420    4.0770 O   0  0  0  0  0  0  0  0  0  0  0  0
   25.5620   15.2950    5.1650 C   0  0  0  0  0  0  0  0  0  0  0  0
   25.0330   15.6070    6.4200 C   0  0  0  0  0  0  0  0  0  0  0  0
   25.8400   15.5910    7.5750 C   0  0  0  0  0  0  0  0  0  0  0  0
   25.3190   15.9640    8.8890 C   0  0  0  0  0  0  0  0  0  0  0  0
   24.1010   15.4050    9.3520 C   0  0  0  0  0  0  0  0  0  0  0  0
   23.5820   15.7280   10.6090 C   0  0  0  0  0  0  0  0  0  0  0  0
   24.3030   16.6150   11.3820 C   0  0  0  0  0  0  0  0  0  0  0  0
   25.5030   17.1800   10.9590 C   0  0  0  0  0  0  0  0  0  0  0  0
   26.0250   16.8620    9.7150 C   0  0  0  0  0  0  0  0  0  0  0  0
   26.0510   18.0660   12.0260 C   0  0  0  0  0  0  0  0  0  0  0  0
   25.0010   18.0410   13.0350 N   0  0  0  0  0  0  0  0  0  0  0  0
   25.2170   18.6020   14.3660 C   0  0  1  0  0  0  0  0  0  0  0  0
   26.3060   17.8880   15.1660 C   0  0  0  0  0  0  0  0  0  0  0  0
   26.4030   18.5120   16.5500 C   0  0  0  0  0  0  0  0  0  0  0  0
   26.6670   19.9970   16.4650 C   0  0  0  0  0  0  0  0  0  0  0  0
   27.1850   20.6220   17.3860 O   0  0  0  0  0  0  0  0  0  0  0  0
   26.2230   20.6390   15.3370 N   0  0  0  0  0  0  0  0  0  0  0  0
   25.5000   20.1100   14.2930 C   0  0  0  0  0  0  0  0  0  0  0  0
   25.0340   20.8470   13.4240 O   0  0  0  0  0  0  0  0  0  0  0  0
   24.0110   17.1200   12.7290 C   0  0  0  0  0  0  0  0  0  0  0  0
   23.0780   16.7520   13.4160 O   0  0  0  0  0  0  0  0  0  0  0  0
   27.1930   15.2200    7.4210 C   0  0  0  0  0  0  0  0  0  0  0  0
   28.3370   15.0800    8.2370 C   0  0  0  0  0  0  0  0  0  0  0  0
   29.4090   14.6750    7.5510 N   0  0  0  0  0  0  0  0  0  0  0  0
   28.9780   14.5550    6.2380 O   0  0  0  0  0  0  0  0  0  0  0  0
   27.6610   14.8870    6.1600 C   0  0  0  0  0  0  0  0  0  0  0  0
   26.8910   14.9020    5.0010 C   0  0  0  0  0  0  0  0  0  0  0  0
   23.0890   12.8630    5.8880 C   0  0  0  0  0  0  0  0  0  0  0  0
   23.5000   12.1150    6.8910 N   0  0  0  0  0  0  0  0  0  0  0  0
   24.7464    9.1845    8.6779 H   0  0  0  0  0  0  0  0  0  0  0  0
   23.8606    9.4192    7.1330 H   0  0  0  0  0  0  0  0  0  0  0  0
   25.4708    8.6230    7.1330 H   0  0  0  0  0  0  0  0  0  0  0  0
   25.6166   11.2350    8.4123 H   0  0  0  0  0  0  0  0  0  0  0  0
   26.5072   10.5842    6.9663 H   0  0  0  0  0  0  0  0  0  0  0  0
   26.0569   12.0180    4.7546 H   0  0  0  0  0  0  0  0  0  0  0  0
   23.9684   15.8696    6.5079 H   0  0  0  0  0  0  0  0  0  0  0  0
   23.5526   14.7018    8.7080 H   0  0  0  0  0  0  0  0  0  0  0  0
   22.6374   15.2929   10.9674 H   0  0  0  0  0  0  0  0  0  0  0  0
   26.9746   17.3031    9.3778 H   0  0  0  0  0  0  0  0  0  0  0  0
   26.9950   17.6675   12.4262 H   0  0  0  0  0  0  0  0  0  0  0  0
   26.2906   19.0792   11.6710 H   0  0  0  0  0  0  0  0  0  0  0  0
   24.2767   18.4382   14.9127 H   0  0  0  0  0  0  0  0  0  0  0  0
   26.0533   16.8216   15.2605 H   0  0  0  0  0  0  0  0  0  0  0  0
   27.2708   17.9891   14.6474 H   0  0  0  0  0  0  0  0  0  0  0  0
   25.4562   18.3464   17.0849 H   0  0  0  0  0  0  0  0  0  0  0  0
   27.2401   18.0405   17.0857 H   0  0  0  0  0  0  0  0  0  0  0  0
   26.4597   21.6387   15.2626 H   0  0  0  0  0  0  0  0  0  0  0  0
   28.3444   15.2822    9.3182 H   0  0  0  0  0  0  0  0  0  0  0  0
   27.3028   14.6225    4.0200 H   0  0  0  0  0  0  0  0  0  0  0  0
   22.1256   13.3929    5.8552 H   0  0  0  0  0  0  0  0  0  0  0  0
  1  2  1  0
  2  3  1  0
  3  4  2  0
  4  5  1  0
  5  6  1  0
  6  7  2  0
  6  8  2  0
  6  9  1  0
  9 10  1  0
 10 11  2  0
 11 12  1  0
 12 13  1  0
 13 14  2  0
 14 15  1  0
 15 16  2  0
 16 17  1  0
 17 18  2  0
 17 19  1  0
 19 20  1  0
 20 21  1  0
 21 22  1  0
 22 23  1  0
 23 24  1  0
 24 25  2  0
 24 26  1  0
 26 27  1  0
 27 28  2  0
 20 29  1  0
 29 30  2  0
 12 31  2  0
 31 32  1  0
 32 33  2  0
 33 34  1  0
 34 35  1  0
 35 36  2  0
  5 37  1  0
 37 38  2  0
 38  3  1  0
 36 10  1  0
 18 13  1  0
 27 21  1  0
 35 31  1  0
 29 16  1  0
  1 39  1  0
  1 40  1  0
  1 41  1  0
  2 42  1  0
  2 43  1  0
  4 44  1  0
 11 45  1  0
 14 46  1  0
 15 47  1  0
 18 48  1  0
 19 49  1  0
 19 50  1  0
 21 51  1  1
 22 52  1  0
 22 53  1  0
 23 54  1  0
 23 55  1  0
 26 56  1  0
 32 57  1  0
 36 58  1  0
 37 59  1  0
M  END
>  <meeko>  (101) 
{"is_sidechain": [true], "free_energy": -14.28, "intermolecular_energy": 0.0, "internal_energy": -14.28, "cluster_size": 13, "cluster_id": 1, "rank_in_cluster": 1}

>  <_RMSD_MCS_to_ref>  (101) 
0.4725346548138025

$$$$
ligand
     RDKit          3D

 60 65  0  0  0  0  0  0  0  0999 V2000
   24.8710    9.6160    7.7820 C   0  0  0  0  0  0  0  0  0  0  0  0
   25.4240   10.9650    7.3490 C   0  0  0  0  0  0  0  0  0  0  0  0
   24.8790   11.4020    6.0360 C   0  0  0  0  0  0  0  0  0  0  0  0
   24.1420   12.5300    5.7340 C   0  0  0  0  0  0  0  0  0  0  0  0
   23.8900   12.4180    4.3950 N   0  0  0  0  0  0  0  0  0  0  0  0
   23.2590   13.6380    3.4230 S   0  0  0  0  0  6  0  0  0  0  0  0
   21.8440   13.7150    3.7380 O   0  0  0  0  0  0  0  0  0  0  0  0
   23.6910   13.2630    2.0870 O   0  0  0  0  0  0  0  0  0  0  0  0
   24.0140   15.0380    3.8010 O   0  0  0  0  0  0  0  0  0  0  0  0
   25.3310   15.0810    4.1980 C   0  0  0  0  0  0  0  0  0  0  0  0
   26.3350   14.8340    3.3330 C   0  0  0  0  0  0  0  0  0  0  0  0
   27.7280   14.8610    3.7530 C   0  0  0  0  0  0  0  0  0  0  0  0
   28.0090   15.1150    5.0420 C   0  0  0  0  0  0  0  0  0  0  0  0
   26.9640   15.3370    5.9350 N   0  0  0  0  0  0  0  0  0  0  0  0
   27.0120   15.5950    7.2800 C   0  0  0  0  0  0  0  0  0  0  0  0
   25.6990   15.7080    7.6900 C   0  0  0  0  0  0  0  0  0  0  0  0
   25.2430   15.9850    9.0460 C   0  0  0  0  0  0  0  0  0  0  0  0
   23.9870   15.4900    9.4710 C   0  0  0  0  0  0  0  0  0  0  0  0
   23.4810   15.7410   10.7540 C   0  0  0  0  0  0  0  0  0  0  0  0
   24.2550   16.4860   11.6200 C   0  0  0  0  0  0  0  0  0  0  0  0
   25.4940   16.9670   11.2070 C   0  0  0  0  0  0  0  0  0  0  0  0
   26.0100   16.7420    9.9430 C   0  0  0  0  0  0  0  0  0  0  0  0
   26.0850   17.7160   12.3200 C   0  0  0  0  0  0  0  0  0  0  0  0
   27.1340   18.3260   12.2600 O   0  0  0  0  0  0  0  0  0  0  0  0
   25.2170   17.5920   13.3950 N   0  0  0  0  0  0  0  0  0  0  0  0
   25.3160   18.3660   14.6270 C   0  0  1  0  0  0  0  0  0  0  0  0
   26.2640   17.7570   15.6600 C   0  0  0  0  0  0  0  0  0  0  0  0
   26.2460   18.6040   16.9220 C   0  0  0  0  0  0  0  0  0  0  0  0
   26.6110   20.0390   16.6240 C   0  0  0  0  0  0  0  0  0  0  0  0
   27.0660   20.7900   17.4820 O   0  0  0  0  0  0  0  0  0  0  0  0
   26.3310   20.4970   15.3610 N   0  0  0  0  0  0  0  0  0  0  0  0
   25.6970   19.8260   14.3390 C   0  0  0  0  0  0  0  0  0  0  0  0
   25.3780   20.4220   13.3120 O   0  0  0  0  0  0  0  0  0  0  0  0
   23.9750   16.9290   13.0150 C   0  0  0  0  0  0  0  0  0  0  0  0
   24.8430   15.5180    6.6210 N   0  0  0  0  0  0  0  0  0  0  0  0
   25.6210   15.3180    5.5760 C   0  0  0  0  0  0  0  0  0  0  0  0
   24.5260   11.3180    3.9150 C   0  0  0  0  0  0  0  0  0  0  0  0
   25.1060   10.6530    4.8950 N   0  0  0  0  0  0  0  0  0  0  0  0
   24.8497    9.5640    8.8806 H   0  0  0  0  0  0  0  0  0  0  0  0
   23.8507    9.4948    7.3893 H   0  0  0  0  0  0  0  0  0  0  0  0
   25.5127    8.8135    7.3893 H   0  0  0  0  0  0  0  0  0  0  0  0
   25.1612   11.7157    8.1089 H   0  0  0  0  0  0  0  0  0  0  0  0
   26.5144   10.8645    7.2447 H   0  0  0  0  0  0  0  0  0  0  0  0
   23.8291   13.3349    6.4153 H   0  0  0  0  0  0  0  0  0  0  0  0
   26.0954   14.6064    2.2838 H   0  0  0  0  0  0  0  0  0  0  0  0
   28.5354   14.6770    3.0290 H   0  0  0  0  0  0  0  0  0  0  0  0
   29.0527   15.1472    5.3879 H   0  0  0  0  0  0  0  0  0  0  0  0
   27.9122   15.6921    7.9046 H   0  0  0  0  0  0  0  0  0  0  0  0
   23.3881   14.8884    8.7714 H   0  0  0  0  0  0  0  0  0  0  0  0
   22.4974   15.3560   11.0609 H   0  0  0  0  0  0  0  0  0  0  0  0
   26.9912   17.1444    9.6510 H   0  0  0  0  0  0  0  0  0  0  0  0
   24.3115   18.3393   15.0745 H   0  0  0  0  0  0  0  0  0  0  0  0
   25.9378   16.7342   15.8997 H   0  0  0  0  0  0  0  0  0  0  0  0
   27.2846   17.7286   15.2507 H   0  0  0  0  0  0  0  0  0  0  0  0
   25.2372   18.5741   17.3594 H   0  0  0  0  0  0  0  0  0  0  0  0
   26.9868   18.1958   17.6252 H   0  0  0  0  0  0  0  0  0  0  0  0
   26.6316   21.4597   15.1520 H   0  0  0  0  0  0  0  0  0  0  0  0
   23.7672   16.0700   13.6700 H   0  0  0  0  0  0  0  0  0  0  0  0
   23.0903   17.5774   13.0983 H   0  0  0  0  0  0  0  0  0  0  0  0
   24.5535   11.0228    2.8557 H   0  0  0  0  0  0  0  0  0  0  0  0
  1  2  1  0
  2  3  1  0
  3  4  2  0
  4  5  1  0
  5  6  1  0
  6  7  2  0
  6  8  2  0
  6  9  1  0
  9 10  1  0
 10 11  2  0
 11 12  1  0
 12 13  2  0
 13 14  1  0
 14 15  1  0
 15 16  2  0
 16 17  1  0
 17 18  2  0
 18 19  1  0
 19 20  2  0
 20 21  1  0
 21 22  2  0
 21 23  1  0
 23 24  2  0
 23 25  1  0
 25 26  1  0
 26 27  1  0
 27 28  1  0
 28 29  1  0
 29 30  2  0
 29 31  1  0
 31 32  1  0
 32 33  2  0
 25 34  1  0
 16 35  1  0
 35 36  2  0
  5 37  1  0
 37 38  2  0
 38  3  1  0
 36 10  1  0
 36 14  1  0
 22 17  1  0
 32 26  1  0
 34 20  1  0
  1 39  1  0
  1 40  1  0
  1 41  1  0
  2 42  1  0
  2 43  1  0
  4 44  1  0
 11 45  1  0
 12 46  1  0
 13 47  1  0
 15 48  1  0
 18 49  1  0
 19 50  1  0
 22 51  1  0
 26 52  1  1
 27 53  1  0
 27 54  1  0
 28 55  1  0
 28 56  1  0
 31 57  1  0
 34 58  1  0
 34 59  1  0
 37 60  1  0
M  END
>  <meeko>  (102) 
{"is_sidechain": [true], "free_energy": -14.28, "intermolecular_energy": 0.0, "internal_energy": -14.28, "cluster_size": 13, "cluster_id": 1, "rank_in_cluster": 1}

>  <_RMSD_MCS_to_ref>  (102) 
0.4719135984949411

$$$$
ligand
     RDKit          3D

 60 65  0  0  0  0  0  0  0  0999 V2000
   24.8540    9.4020    7.6050 C   0  0  0  0  0  0  0  0  0  0  0  0
   25.5230   10.7550    7.4270 C   0  0  0  0  0  0  0  0  0  0  0  0
   24.7320   11.6600    6.5500 C   0  0  0  0  0  0  0  0  0  0  0  0
   25.0050   12.0780    5.2620 C   0  0  0  0  0  0  0  0  0  0  0  0
   23.9610   12.9020    4.9490 N   0  0  0  0  0  0  0  0  0  0  0  0
   23.8940   13.9270    3.6070 S   0  0  0  0  0  6  0  0  0  0  0  0
   22.4790   14.1230    3.3470 O   0  0  0  0  0  0  0  0  0  0  0  0
   24.7530   13.2870    2.6280 O   0  0  0  0  0  0  0  0  0  0  0  0
   24.5740   15.3600    4.0140 O   0  0  0  0  0  0  0  0  0  0  0  0
   25.4390   15.4040    5.0800 C   0  0  0  0  0  0  0  0  0  0  0  0
   24.9760   15.7260    6.3640 C   0  0  0  0  0  0  0  0  0  0  0  0
   25.8410   15.7320    7.4720 C   0  0  0  0  0  0  0  0  0  0  0  0
   25.3270   16.0420    8.8160 C   0  0  0  0  0  0  0  0  0  0  0  0
   24.1400   15.4240    9.2890 C   0  0  0  0  0  0  0  0  0  0  0  0
   23.6320   15.6980   10.5620 C   0  0  0  0  0  0  0  0  0  0  0  0
   24.3270   16.5970   11.3430 C   0  0  0  0  0  0  0  0  0  0  0  0
   25.4930   17.2220   10.9110 C   0  0  0  0  0  0  0  0  0  0  0  0
   26.0050   16.9530    9.6510 C   0  0  0  0  0  0  0  0  0  0  0  0
   26.0210   18.1110   11.9850 C   0  0  0  0  0  0  0  0  0  0  0  0
   24.9910   18.0220   13.0110 N   0  0  0  0  0  0  0  0  0  0  0  0
   25.2020   18.5710   14.3460 C   0  0  1  0  0  0  0  0  0  0  0  0
   26.3100   17.8730   15.1320 C   0  0  0  0  0  0  0  0  0  0  0  0
   26.4000   18.4790   16.5240 C   0  0  0  0  0  0  0  0  0  0  0  0
   26.6320   19.9710   16.4570 C   0  0  0  0  0  0  0  0  0  0  0  0
   27.1380   20.5970   17.3840 O   0  0  0  0  0  0  0  0  0  0  0  0
   26.1670   20.6180   15.3390 N   0  0  0  0  0  0  0  0  0  0  0  0
   25.4500   20.0860   14.2920 C   0  0  0  0  0  0  0  0  0  0  0  0
   24.9600   20.8240   13.4370 O   0  0  0  0  0  0  0  0  0  0  0  0
   24.0360   17.0630   12.7030 C   0  0  0  0  0  0  0  0  0  0  0  0
   23.1310   16.6450   13.3980 O   0  0  0  0  0  0  0  0  0  0  0  0
   27.2050   15.4310    7.2860 C   0  0  0  0  0  0  0  0  0  0  0  0
   27.6500   15.1520    5.9880 C   0  0  0  0  0  0  0  0  0  0  0  0
   28.8910   14.8410    5.4950 N   0  0  0  0  0  0  0  0  0  0  0  0
   28.9180   14.6440    4.1650 N   0  0  0  0  0  0  0  0  0  0  0  0
   27.6480   14.8330    3.7970 C   0  0  0  0  0  0  0  0  0  0  0  0
   26.8050   15.1440    4.8860 C   0  0  0  0  0  0  0  0  0  0  0  0
   23.1280   12.9920    6.0180 C   0  0  0  0  0  0  0  0  0  0  0  0
   23.5590   12.2330    7.0040 N   0  0  0  0  0  0  0  0  0  0  0  0
   24.7464    9.1845    8.6779 H   0  0  0  0  0  0  0  0  0  0  0  0
   23.8606    9.4192    7.1330 H   0  0  0  0  0  0  0  0  0  0  0  0
   25.4708    8.6230    7.1330 H   0  0  0  0  0  0  0  0  0  0  0  0
   25.6360   11.2273    8.4140 H   0  0  0  0  0  0  0  0  0  0  0  0
   26.4999   10.5894    6.9493 H   0  0  0  0  0  0  0  0  0  0  0  0
   25.8659   11.8090    4.6324 H   0  0  0  0  0  0  0  0  0  0  0  0
   23.9150   15.9789    6.5069 H   0  0  0  0  0  0  0  0  0  0  0  0
   23.6080   14.7135    8.6392 H   0  0  0  0  0  0  0  0  0  0  0  0
   22.7134   15.2151   10.9266 H   0  0  0  0  0  0  0  0  0  0  0  0
   26.9276   17.4438    9.3076 H   0  0  0  0  0  0  0  0  0  0  0  0
   26.9882   17.7466   12.3615 H   0  0  0  0  0  0  0  0  0  0  0  0
   26.2105   19.1400   11.6454 H   0  0  0  0  0  0  0  0  0  0  0  0
   24.2680   18.3786   14.8942 H   0  0  0  0  0  0  0  0  0  0  0  0
   26.0826   16.7998   15.2129 H   0  0  0  0  0  0  0  0  0  0  0  0
   27.2696   18.0051   14.6108 H   0  0  0  0  0  0  0  0  0  0  0  0
   25.4595   18.2859   17.0608 H   0  0  0  0  0  0  0  0  0  0  0  0
   27.2488   18.0179   17.0502 H   0  0  0  0  0  0  0  0  0  0  0  0
   26.3808   21.6236   15.2764 H   0  0  0  0  0  0  0  0  0  0  0  0
   27.9013   15.4156    8.1374 H   0  0  0  0  0  0  0  0  0  0  0  0
   29.7281   14.7650    6.0903 H   0  0  0  0  0  0  0  0  0  0  0  0
   27.2968   14.7548    2.7575 H   0  0  0  0  0  0  0  0  0  0  0  0
   22.2203   13.6122    6.0550 H   0  0  0  0  0  0  0  0  0  0  0  0
  1  2  1  0
  2  3  1  0
  3  4  2  0
  4  5  1  0
  5  6  1  0
  6  7  2  0
  6  8  2  0
  6  9  1  0
  9 10  1  0
 10 11  2  0
 11 12  1  0
 12 13  1  0
 13 14  2  0
 14 15  1  0
 15 16  2  0
 16 17  1  0
 17 18  2  0
 17 19  1  0
 19 20  1  0
 20 21  1  0
 21 22  1  0
 22 23  1  0
 23 24  1  0
 24 25  2  0
 24 26  1  0
 26 27  1  0
 27 28  2  0
 20 29  1  0
 29 30  2  0
 12 31  2  0
 31 32  1  0
 32 33  1  0
 33 34  1  0
 34 35  2  0
 35 36  1  0
  5 37  1  0
 37 38  2  0
 38  3  1  0
 36 10  1  0
 18 13  1  0
 27 21  1  0
 36 32  2  0
 29 16  1  0
  1 39  1  0
  1 40  1  0
  1 41  1  0
  2 42  1  0
  2 43  1  0
  4 44  1  0
 11 45  1  0
 14 46  1  0
 15 47  1  0
 18 48  1  0
 19 49  1  0
 19 50  1  0
 21 51  1  1
 22 52  1  0
 22 53  1  0
 23 54  1  0
 23 55  1  0
 26 56  1  0
 31 57  1  0
 33 58  1  0
 35 59  1  0
 37 60  1  0
M  END
>  <meeko>  (103) 
{"is_sidechain": [true], "free_energy": -14.27, "intermolecular_energy": 0.0, "internal_energy": -14.27, "cluster_size": 19, "cluster_id": 1, "rank_in_cluster": 1}

>  <_RMSD_MCS_to_ref>  (103) 
0.4651038115900095

$$$$
ligand
     RDKit          3D

 60 65  0  0  0  0  0  0  0  0999 V2000
   24.8540    9.4020    7.6050 C   0  0  0  0  0  0  0  0  0  0  0  0
   25.5230   10.7550    7.4270 C   0  0  0  0  0  0  0  0  0  0  0  0
   25.1810   11.3820    6.1210 C   0  0  0  0  0  0  0  0  0  0  0  0
   24.3380   12.4460    5.8650 C   0  0  0  0  0  0  0  0  0  0  0  0
   24.3920   12.5980    4.5080 N   0  0  0  0  0  0  0  0  0  0  0  0
   23.7540   13.8910    3.6300 S   0  0  0  0  0  6  0  0  0  0  0  0
   24.2840   13.7120    2.2900 O   0  0  0  0  0  0  0  0  0  0  0  0
   22.3240   13.8420    3.8790 O   0  0  0  0  0  0  0  0  0  0  0  0
   24.3580   15.2860    4.2380 O   0  0  0  0  0  0  0  0  0  0  0  0
   25.1790   15.2140    5.3240 C   0  0  0  0  0  0  0  0  0  0  0  0
   24.7390   15.6040    6.5900 C   0  0  0  0  0  0  0  0  0  0  0  0
   25.5890   15.5050    7.7200 C   0  0  0  0  0  0  0  0  0  0  0  0
   25.1090   15.8990    9.0570 C   0  0  0  0  0  0  0  0  0  0  0  0
   23.8950   15.3760    9.5710 C   0  0  0  0  0  0  0  0  0  0  0  0
   23.4180   15.7310   10.8370 C   0  0  0  0  0  0  0  0  0  0  0  0
   24.1770   16.6180   11.5720 C   0  0  0  0  0  0  0  0  0  0  0  0
   25.3740   17.1500   11.1030 C   0  0  0  0  0  0  0  0  0  0  0  0
   25.8520   16.7990    9.8500 C   0  0  0  0  0  0  0  0  0  0  0  0
   25.9690   18.0480   12.1350 C   0  0  0  0  0  0  0  0  0  0  0  0
   24.9470   18.0660   13.1730 N   0  0  0  0  0  0  0  0  0  0  0  0
   25.2080   18.6550   14.4830 C   0  0  1  0  0  0  0  0  0  0  0  0
   26.2780   17.9200   15.2870 C   0  0  0  0  0  0  0  0  0  0  0  0
   26.4230   18.5770   16.6510 C   0  0  0  0  0  0  0  0  0  0  0  0
   26.7490   20.0460   16.5190 C   0  0  0  0  0  0  0  0  0  0  0  0
   27.3060   20.6750   17.4140 O   0  0  0  0  0  0  0  0  0  0  0  0
   26.3130   20.6750   15.3790 N   0  0  0  0  0  0  0  0  0  0  0  0
   25.5520   20.1480   14.3610 C   0  0  0  0  0  0  0  0  0  0  0  0
   25.1040   20.8790   13.4800 O   0  0  0  0  0  0  0  0  0  0  0  0
   23.9310   17.1580   12.9140 C   0  0  0  0  0  0  0  0  0  0  0  0
   23.0080   16.8280   13.6330 O   0  0  0  0  0  0  0  0  0  0  0  0
   26.8990   15.0150    7.5370 C   0  0  0  0  0  0  0  0  0  0  0  0
   27.3060   14.6590    6.2660 C   0  0  0  0  0  0  0  0  0  0  0  0
   26.4730   14.7660    5.1830 C   0  0  0  0  0  0  0  0  0  0  0  0
   27.0620   14.3560    4.0300 O   0  0  0  0  0  0  0  0  0  0  0  0
   28.3630   13.9590    4.5120 C   0  0  0  0  0  0  0  0  0  0  0  0
   28.5270   14.1620    5.9330 O   0  0  0  0  0  0  0  0  0  0  0  0
   25.2640   11.6930    3.9930 C   0  0  0  0  0  0  0  0  0  0  0  0
   25.7520   10.9260    4.9490 N   0  0  0  0  0  0  0  0  0  0  0  0
   24.7464    9.1845    8.6779 H   0  0  0  0  0  0  0  0  0  0  0  0
   23.8606    9.4192    7.1330 H   0  0  0  0  0  0  0  0  0  0  0  0
   25.4708    8.6230    7.1330 H   0  0  0  0  0  0  0  0  0  0  0  0
   25.1946   11.4223    8.2375 H   0  0  0  0  0  0  0  0  0  0  0  0
   26.6117   10.6003    7.4534 H   0  0  0  0  0  0  0  0  0  0  0  0
   23.7561   13.0361    6.5883 H   0  0  0  0  0  0  0  0  0  0  0  0
   23.7177   15.9939    6.7125 H   0  0  0  0  0  0  0  0  0  0  0  0
   23.3130   14.6724    8.9576 H   0  0  0  0  0  0  0  0  0  0  0  0
   22.4766   15.3199   11.2303 H   0  0  0  0  0  0  0  0  0  0  0  0
   26.7992   17.2171    9.4784 H   0  0  0  0  0  0  0  0  0  0  0  0
   26.9158   17.6393   12.5178 H   0  0  0  0  0  0  0  0  0  0  0  0
   26.2184   19.0482   11.7512 H   0  0  0  0  0  0  0  0  0  0  0  0
   24.2709   18.5462   15.0487 H   0  0  0  0  0  0  0  0  0  0  0  0
   25.9830   16.8681   15.4155 H   0  0  0  0  0  0  0  0  0  0  0  0
   27.2379   17.9672   14.7518 H   0  0  0  0  0  0  0  0  0  0  0  0
   25.4784   18.4676   17.2040 H   0  0  0  0  0  0  0  0  0  0  0  0
   27.2469   18.0847   17.1884 H   0  0  0  0  0  0  0  0  0  0  0  0
   26.5893   21.6616   15.2730 H   0  0  0  0  0  0  0  0  0  0  0  0
   27.5846   14.9181    8.3917 H   0  0  0  0  0  0  0  0  0  0  0  0
   28.5069   12.8909    4.2920 H   0  0  0  0  0  0  0  0  0  0  0  0
   29.1076   14.5883    4.0026 H   0  0  0  0  0  0  0  0  0  0  0  0
   25.5266   11.6110    2.9279 H   0  0  0  0  0  0  0  0  0  0  0  0
  1  2  1  0
  2  3  1  0
  3  4  2  0
  4  5  1  0
  5  6  1  0
  6  7  2  0
  6  8  2  0
  6  9  1  0
  9 10  1  0
 10 11  2  0
 11 12  1  0
 12 13  1  0
 13 14  2  0
 14 15  1  0
 15 16  2  0
 16 17  1  0
 17 18  2  0
 17 19  1  0
 19 20  1  0
 20 21  1  0
 21 22  1  0
 22 23  1  0
 23 24  1  0
 24 25  2  0
 24 26  1  0
 26 27  1  0
 27 28  2  0
 20 29  1  0
 29 30  2  0
 12 31  2  0
 31 32  1  0
 32 33  2  0
 33 34  1  0
 34 35  1  0
 35 36  1  0
  5 37  1  0
 37 38  2  0
 38  3  1  0
 33 10  1  0
 18 13  1  0
 27 21  1  0
 36 32  1  0
 29 16  1  0
  1 39  1  0
  1 40  1  0
  1 41  1  0
  2 42  1  0
  2 43  1  0
  4 44  1  0
 11 45  1  0
 14 46  1  0
 15 47  1  0
 18 48  1  0
 19 49  1  0
 19 50  1  0
 21 51  1  1
 22 52  1  0
 22 53  1  0
 23 54  1  0
 23 55  1  0
 26 56  1  0
 31 57  1  0
 35 58  1  0
 35 59  1  0
 37 60  1  0
M  END
>  <meeko>  (104) 
{"is_sidechain": [true], "free_energy": -14.27, "intermolecular_energy": 0.0, "internal_energy": -14.27, "cluster_size": 17, "cluster_id": 1, "rank_in_cluster": 1}

>  <_RMSD_MCS_to_ref>  (104) 
0.4542484635820641

$$$$
ligand
     RDKit          3D

 59 64  0  0  0  0  0  0  0  0999 V2000
   24.8710    9.6160    7.7820 C   0  0  0  0  0  0  0  0  0  0  0  0
   25.4240   10.9650    7.3490 C   0  0  0  0  0  0  0  0  0  0  0  0
   26.9020   11.0460    7.4990 C   0  0  0  0  0  0  0  0  0  0  0  0
   27.6630   12.0610    8.0500 C   0  0  0  0  0  0  0  0  0  0  0  0
   28.9430   11.5930    7.9730 N   0  0  0  0  0  0  0  0  0  0  0  0
   30.3460   12.4690    8.2850 S   0  0  0  0  0  6  0  0  0  0  0  0
   30.1600   13.0240    9.6140 O   0  0  0  0  0  0  0  0  0  0  0  0
   31.4040   11.5060    8.0340 O   0  0  0  0  0  0  0  0  0  0  0  0
   30.5050   13.6680    7.1900 O   0  0  0  0  0  0  0  0  0  0  0  0
   29.5190   14.0130    6.3410 C   0  0  0  0  0  0  0  0  0  0  0  0
   29.5610   13.7290    4.9960 C   0  0  0  0  0  0  0  0  0  0  0  0
   28.4330   14.1810    4.3810 O   0  0  0  0  0  0  0  0  0  0  0  0
   27.6540   14.7320    5.3530 C   0  0  0  0  0  0  0  0  0  0  0  0
   26.4010   15.2980    5.1950 C   0  0  0  0  0  0  0  0  0  0  0  0
   25.8050   15.7380    6.3790 C   0  0  0  0  0  0  0  0  0  0  0  0
   26.4670   15.6000    7.6100 C   0  0  0  0  0  0  0  0  0  0  0  0
   25.8270   15.9940    8.8830 C   0  0  0  0  0  0  0  0  0  0  0  0
   24.5020   15.5910    9.2010 C   0  0  0  0  0  0  0  0  0  0  0  0
   23.9050   15.9180   10.4250 C   0  0  0  0  0  0  0  0  0  0  0  0
   24.6600   16.6400   11.3250 C   0  0  0  0  0  0  0  0  0  0  0  0
   25.9580   17.0520   11.0500 C   0  0  0  0  0  0  0  0  0  0  0  0
   26.5440   16.7500    9.8330 C   0  0  0  0  0  0  0  0  0  0  0  0
   26.5240   17.7890   12.2190 C   0  0  0  0  0  0  0  0  0  0  0  0
   25.4490   17.6880   13.2010 N   0  0  0  0  0  0  0  0  0  0  0  0
   25.4310   18.4400   14.4480 C   0  0  1  0  0  0  0  0  0  0  0  0
   26.3150   17.8100   15.5210 C   0  0  0  0  0  0  0  0  0  0  0  0
   26.1730   18.5940   16.8170 C   0  0  0  0  0  0  0  0  0  0  0  0
   26.4920   20.0550   16.6090 C   0  0  0  0  0  0  0  0  0  0  0  0
   27.0340   20.7390   17.4730 O   0  0  0  0  0  0  0  0  0  0  0  0
   26.1240   20.6010   15.4050 N   0  0  0  0  0  0  0  0  0  0  0  0
   25.8490   19.9060   14.2480 C   0  0  0  0  0  0  0  0  0  0  0  0
   25.9450   20.4610   13.1570 O   0  0  0  0  0  0  0  0  0  0  0  0
   24.3160   17.0850   12.6790 C   0  0  0  0  0  0  0  0  0  0  0  0
   23.2330   16.9320   13.2110 O   0  0  0  0  0  0  0  0  0  0  0  0
   27.7170   15.0760    7.7410 N   0  0  0  0  0  0  0  0  0  0  0  0
   28.2810   14.6460    6.5880 C   0  0  0  0  0  0  0  0  0  0  0  0
   28.9460   10.4210    7.2860 C   0  0  0  0  0  0  0  0  0  0  0  0
   27.7160   10.0330    7.0220 N   0  0  0  0  0  0  0  0  0  0  0  0
   24.8497    9.5640    8.8806 H   0  0  0  0  0  0  0  0  0  0  0  0
   23.8507    9.4948    7.3893 H   0  0  0  0  0  0  0  0  0  0  0  0
   25.5127    8.8135    7.3893 H   0  0  0  0  0  0  0  0  0  0  0  0
   25.1665   11.1298    6.2923 H   0  0  0  0  0  0  0  0  0  0  0  0
   24.9782   11.7341    7.9969 H   0  0  0  0  0  0  0  0  0  0  0  0
   27.3169   13.0228    8.4563 H   0  0  0  0  0  0  0  0  0  0  0  0
   30.3881   13.2105    4.4890 H   0  0  0  0  0  0  0  0  0  0  0  0
   25.9128   15.3938    4.2139 H   0  0  0  0  0  0  0  0  0  0  0  0
   24.8062   16.1977    6.3470 H   0  0  0  0  0  0  0  0  0  0  0  0
   23.9296   15.0063    8.4658 H   0  0  0  0  0  0  0  0  0  0  0  0
   22.8749   15.6111   10.6590 H   0  0  0  0  0  0  0  0  0  0  0  0
   27.5631   17.0977    9.6082 H   0  0  0  0  0  0  0  0  0  0  0  0
   27.4439   17.3094   12.5847 H   0  0  0  0  0  0  0  0  0  0  0  0
   26.8137   18.8248   11.9882 H   0  0  0  0  0  0  0  0  0  0  0  0
   24.3862   18.4105   14.7909 H   0  0  0  0  0  0  0  0  0  0  0  0
   26.0048   16.7677   15.6867 H   0  0  0  0  0  0  0  0  0  0  0  0
   27.3643   17.8313   15.1917 H   0  0  0  0  0  0  0  0  0  0  0  0
   25.1393   18.5008   17.1813 H   0  0  0  0  0  0  0  0  0  0  0  0
   26.8816   18.1839   17.5516 H   0  0  0  0  0  0  0  0  0  0  0  0
   26.0461   21.6272   15.3625 H   0  0  0  0  0  0  0  0  0  0  0  0
   29.8520    9.8715    6.9908 H   0  0  0  0  0  0  0  0  0  0  0  0
  1  2  1  0
  2  3  1  0
  3  4  2  0
  4  5  1  0
  5  6  1  0
  6  7  2  0
  6  8  2  0
  6  9  1  0
  9 10  1  0
 10 11  2  0
 11 12  1  0
 12 13  1  0
 13 14  2  0
 14 15  1  0
 15 16  2  0
 16 17  1  0
 17 18  2  0
 18 19  1  0
 19 20  2  0
 20 21  1  0
 21 22  2  0
 21 23  1  0
 23 24  1  0
 24 25  1  0
 25 26  1  0
 26 27  1  0
 27 28  1  0
 28 29  2  0
 28 30  1  0
 30 31  1  0
 31 32  2  0
 24 33  1  0
 33 34  2  0
 16 35  1  0
 35 36  2  0
  5 37  1  0
 37 38  2  0
 38  3  1  0
 36 10  1  0
 36 13  1  0
 22 17  1  0
 31 25  1  0
 33 20  1  0
  1 39  1  0
  1 40  1  0
  1 41  1  0
  2 42  1  0
  2 43  1  0
  4 44  1  0
 11 45  1  0
 14 46  1  0
 15 47  1  0
 18 48  1  0
 19 49  1  0
 22 50  1  0
 23 51  1  0
 23 52  1  0
 25 53  1  1
 26 54  1  0
 26 55  1  0
 27 56  1  0
 27 57  1  0
 30 58  1  0
 37 59  1  0
M  END
>  <meeko>  (105) 
{"is_sidechain": [true], "free_energy": -14.27, "intermolecular_energy": 0.0, "internal_energy": -14.27, "cluster_size": 17, "cluster_id": 1, "rank_in_cluster": 1}

>  <_RMSD_MCS_to_ref>  (105) 
0.7671899167879184

$$$$
ligand
     RDKit          3D

 61 66  0  0  0  0  0  0  0  0999 V2000
   24.8710    9.6160    7.7820 C   0  0  0  0  0  0  0  0  0  0  0  0
   25.4240   10.9650    7.3490 C   0  0  0  0  0  0  0  0  0  0  0  0
   26.8060   11.1910    7.8490 C   0  0  0  0  0  0  0  0  0  0  0  0
   27.2170   11.8750    8.9780 C   0  0  0  0  0  0  0  0  0  0  0  0
   28.5780   11.8020    8.9340 N   0  0  0  0  0  0  0  0  0  0  0  0
   29.6760   12.5280    9.9870 S   0  0  0  0  0  6  0  0  0  0  0  0
   30.9700   12.1790    9.4240 O   0  0  0  0  0  0  0  0  0  0  0  0
   29.3210   12.0840   11.3230 O   0  0  0  0  0  0  0  0  0  0  0  0
   29.5350   14.1470    9.8830 O   0  0  0  0  0  0  0  0  0  0  0  0
   28.4200   14.6990    9.3080 C   0  0  0  0  0  0  0  0  0  0  0  0
   27.3130   14.8670   10.1110 C   0  0  0  0  0  0  0  0  0  0  0  0
   26.1770   15.4550    9.5530 C   0  0  0  0  0  0  0  0  0  0  0  0
   24.9820   15.6140   10.3900 C   0  0  0  0  0  0  0  0  0  0  0  0
   23.7180   15.1840    9.9390 C   0  0  0  0  0  0  0  0  0  0  0  0
   22.5620   15.3410   10.7280 C   0  0  0  0  0  0  0  0  0  0  0  0
   22.6390   15.9330   11.9870 C   0  0  0  0  0  0  0  0  0  0  0  0
   23.8860   16.3470   12.4170 C   0  0  0  0  0  0  0  0  0  0  0  0
   25.0410   16.1990   11.6500 C   0  0  0  0  0  0  0  0  0  0  0  0
   26.2070   16.7700   12.3870 C   0  0  0  0  0  0  0  0  0  0  0  0
   25.6300   17.1500   13.6690 N   0  0  0  0  0  0  0  0  0  0  0  0
   26.3700   17.9800   14.6140 C   0  0  2  0  0  0  0  0  0  0  0  0
   25.9420   17.7950   16.0690 C   0  0  0  0  0  0  0  0  0  0  0  0
   26.8170   18.6560   16.9650 C   0  0  0  0  0  0  0  0  0  0  0  0
   26.7550   20.1100   16.5580 C   0  0  0  0  0  0  0  0  0  0  0  0
   27.0040   21.0210   17.3420 O   0  0  0  0  0  0  0  0  0  0  0  0
   26.4870   20.3690   15.2370 N   0  0  0  0  0  0  0  0  0  0  0  0
   26.3030   19.4630   14.2160 C   0  0  0  0  0  0  0  0  0  0  0  0
   26.1960   19.8490   13.0530 O   0  0  0  0  0  0  0  0  0  0  0  0
   24.2500   17.0020   13.6770 C   0  0  0  0  0  0  0  0  0  0  0  0
   23.4560   17.3490   14.5290 O   0  0  0  0  0  0  0  0  0  0  0  0
   26.2220   15.8680    8.1960 C   0  0  0  0  0  0  0  0  0  0  0  0
   25.1410   16.4710    7.5150 C   0  0  0  0  0  0  0  0  0  0  0  0
   25.2730   16.8430    6.1860 C   0  0  0  0  0  0  0  0  0  0  0  0
   26.4830   16.5980    5.5750 C   0  0  0  0  0  0  0  0  0  0  0  0
   27.5320   16.0200    6.1980 N   0  0  0  0  0  0  0  0  0  0  0  0
   27.4150   15.6630    7.4750 C   0  0  0  0  0  0  0  0  0  0  0  0
   28.4830   15.0980    8.0330 N   0  0  0  0  0  0  0  0  0  0  0  0
   28.9540   11.1030    7.8320 C   0  0  0  0  0  0  0  0  0  0  0  0
   27.8980   10.7070    7.1520 N   0  0  0  0  0  0  0  0  0  0  0  0
   24.8497    9.5640    8.8806 H   0  0  0  0  0  0  0  0  0  0  0  0
   23.8507    9.4948    7.3893 H   0  0  0  0  0  0  0  0  0  0  0  0
   25.5127    8.8135    7.3893 H   0  0  0  0  0  0  0  0  0  0  0  0
   25.4333   11.0080    6.2499 H   0  0  0  0  0  0  0  0  0  0  0  0
   24.7783   11.7475    7.7743 H   0  0  0  0  0  0  0  0  0  0  0  0
   26.5902   12.3654    9.7373 H   0  0  0  0  0  0  0  0  0  0  0  0
   27.3243   14.5464   11.1632 H   0  0  0  0  0  0  0  0  0  0  0  0
   23.6323   14.7149    8.9478 H   0  0  0  0  0  0  0  0  0  0  0  0
   21.5903   14.9934   10.3472 H   0  0  0  0  0  0  0  0  0  0  0  0
   21.7443   16.0655   12.6131 H   0  0  0  0  0  0  0  0  0  0  0  0
   26.9991   16.0180   12.5173 H   0  0  0  0  0  0  0  0  0  0  0  0
   26.6837   17.6098   11.8602 H   0  0  0  0  0  0  0  0  0  0  0  0
   27.4128   17.6348   14.5566 H   0  0  0  0  0  0  0  0  0  0  0  0
   24.8903   18.0965   16.1835 H   0  0  0  0  0  0  0  0  0  0  0  0
   26.0521   16.7381   16.3532 H   0  0  0  0  0  0  0  0  0  0  0  0
   26.4702   18.5596   18.0044 H   0  0  0  0  0  0  0  0  0  0  0  0
   27.8575   18.3122   16.8689 H   0  0  0  0  0  0  0  0  0  0  0  0
   26.4146   21.3631   14.9773 H   0  0  0  0  0  0  0  0  0  0  0  0
   24.1910   16.6460    8.0412 H   0  0  0  0  0  0  0  0  0  0  0  0
   24.4431   17.3158    5.6403 H   0  0  0  0  0  0  0  0  0  0  0  0
   26.6011   16.8895    4.5209 H   0  0  0  0  0  0  0  0  0  0  0  0
   29.9961   10.8963    7.5469 H   0  0  0  0  0  0  0  0  0  0  0  0
  1  2  1  0
  2  3  1  0
  3  4  2  0
  4  5  1  0
  5  6  1  0
  6  7  2  0
  6  8  2  0
  6  9  1  0
  9 10  1  0
 10 11  2  0
 11 12  1  0
 12 13  1  0
 13 14  2  0
 14 15  1  0
 15 16  2  0
 16 17  1  0
 17 18  2  0
 18 19  1  0
 19 20  1  0
 20 21  1  0
 21 22  1  0
 22 23  1  0
 23 24  1  0
 24 25  2  0
 24 26  1  0
 26 27  1  0
 27 28  2  0
 20 29  1  0
 29 30  2  0
 12 31  2  0
 31 32  1  0
 32 33  2  0
 33 34  1  0
 34 35  2  0
 35 36  1  0
 36 37  2  0
  5 38  1  0
 38 39  2  0
 39  3  1  0
 37 10  1  0
 18 13  1  0
 27 21  1  0
 36 31  1  0
 29 17  1  0
  1 40  1  0
  1 41  1  0
  1 42  1  0
  2 43  1  0
  2 44  1  0
  4 45  1  0
 11 46  1  0
 14 47  1  0
 15 48  1  0
 16 49  1  0
 19 50  1  0
 19 51  1  0
 21 52  1  1
 22 53  1  0
 22 54  1  0
 23 55  1  0
 23 56  1  0
 26 57  1  0
 32 58  1  0
 33 59  1  0
 34 60  1  0
 38 61  1  0
M  END
>  <meeko>  (106) 
{"is_sidechain": [true], "free_energy": -14.27, "intermolecular_energy": 0.0, "internal_energy": -14.27, "cluster_size": 15, "cluster_id": 1, "rank_in_cluster": 1}

>  <_RMSD_MCS_to_ref>  (106) 
1.2527855850951601

$$$$
ligand
     RDKit          3D

 58 63  0  0  0  0  0  0  0  0999 V2000
   24.8540    9.4020    7.6050 C   0  0  0  0  0  0  0  0  0  0  0  0
   25.5230   10.7550    7.4270 C   0  0  0  0  0  0  0  0  0  0  0  0
   24.7360   11.6600    6.5450 C   0  0  0  0  0  0  0  0  0  0  0  0
   24.9040   11.9240    5.1990 C   0  0  0  0  0  0  0  0  0  0  0  0
   23.9040   12.8080    4.9080 N   0  0  0  0  0  0  0  0  0  0  0  0
   23.7130   13.6140    3.4550 S   0  0  0  0  0  6  0  0  0  0  0  0
   22.3950   14.2150    3.5290 O   0  0  0  0  0  0  0  0  0  0  0  0
   24.0930   12.7100    2.3900 O   0  0  0  0  0  0  0  0  0  0  0  0
   24.7740   14.9330    3.3270 C   0  0  0  0  0  0  0  0  0  0  0  0
   25.1550   15.5320    2.1540 C   0  0  0  0  0  0  0  0  0  0  0  0
   26.0120   16.5440    2.4260 O   0  0  0  0  0  0  0  0  0  0  0  0
   26.2130   16.6170    3.7930 N   0  0  0  0  0  0  0  0  0  0  0  0
   25.4700   15.6340    4.3270 C   0  0  0  0  0  0  0  0  0  0  0  0
   25.4440   15.4080    5.7670 C   0  0  0  0  0  0  0  0  0  0  0  0
   24.8480   16.1680    6.7460 C   0  0  0  0  0  0  0  0  0  0  0  0
   25.1110   15.4990    7.9180 N   0  0  0  0  0  0  0  0  0  0  0  0
   24.7360   15.8380    9.2440 C   0  0  0  0  0  0  0  0  0  0  0  0
   23.4750   15.4180    9.7380 C   0  0  0  0  0  0  0  0  0  0  0  0
   23.0610   15.7350   11.0380 C   0  0  0  0  0  0  0  0  0  0  0  0
   23.9210   16.4650   11.8360 C   0  0  0  0  0  0  0  0  0  0  0  0
   25.1590   16.8700   11.3420 C   0  0  0  0  0  0  0  0  0  0  0  0
   25.5970   16.5810   10.0610 C   0  0  0  0  0  0  0  0  0  0  0  0
   25.8440   17.6260   12.3950 C   0  0  0  0  0  0  0  0  0  0  0  0
   26.9130   18.1860   12.2530 O   0  0  0  0  0  0  0  0  0  0  0  0
   25.0320   17.5780   13.5180 N   0  0  0  0  0  0  0  0  0  0  0  0
   25.2310   18.3930   14.7120 C   0  0  1  0  0  0  0  0  0  0  0  0
   26.3030   17.8510   15.6560 C   0  0  0  0  0  0  0  0  0  0  0  0
   26.3840   18.7380   16.8890 C   0  0  0  0  0  0  0  0  0  0  0  0
   26.6600   20.1750   16.5130 C   0  0  0  0  0  0  0  0  0  0  0  0
   27.1740   20.9690   17.2960 O   0  0  0  0  0  0  0  0  0  0  0  0
   26.2310   20.5820   15.2750 N   0  0  0  0  0  0  0  0  0  0  0  0
   25.5280   19.8550   14.3410 C   0  0  0  0  0  0  0  0  0  0  0  0
   25.0890   20.4010   13.3300 O   0  0  0  0  0  0  0  0  0  0  0  0
   23.7430   16.9610   13.2310 C   0  0  0  0  0  0  0  0  0  0  0  0
   25.8280   14.3810    7.6410 N   0  0  0  0  0  0  0  0  0  0  0  0
   26.0340   14.3240    6.3340 N   0  0  0  0  0  0  0  0  0  0  0  0
   23.2210   13.1000    6.0430 C   0  0  0  0  0  0  0  0  0  0  0  0
   23.6890   12.4010    7.0560 N   0  0  0  0  0  0  0  0  0  0  0  0
   24.7464    9.1845    8.6779 H   0  0  0  0  0  0  0  0  0  0  0  0
   23.8606    9.4192    7.1330 H   0  0  0  0  0  0  0  0  0  0  0  0
   25.4708    8.6230    7.1330 H   0  0  0  0  0  0  0  0  0  0  0  0
   25.6320   11.2288    8.4137 H   0  0  0  0  0  0  0  0  0  0  0  0
   26.5013   10.5881    6.9526 H   0  0  0  0  0  0  0  0  0  0  0  0
   25.6667   11.5165    4.5191 H   0  0  0  0  0  0  0  0  0  0  0  0
   24.8173   15.2366    1.1496 H   0  0  0  0  0  0  0  0  0  0  0  0
   24.2851   17.1045    6.6193 H   0  0  0  0  0  0  0  0  0  0  0  0
   22.8090   14.8319    9.0877 H   0  0  0  0  0  0  0  0  0  0  0  0
   22.0787   15.4119   11.4132 H   0  0  0  0  0  0  0  0  0  0  0  0
   26.5792   16.9204    9.7004 H   0  0  0  0  0  0  0  0  0  0  0  0
   24.2813   18.3457   15.2650 H   0  0  0  0  0  0  0  0  0  0  0  0
   26.0424   16.8258   15.9576 H   0  0  0  0  0  0  0  0  0  0  0  0
   27.2760   17.8445   15.1429 H   0  0  0  0  0  0  0  0  0  0  0  0
   25.4283   18.6865   17.4311 H   0  0  0  0  0  0  0  0  0  0  0  0
   27.2094   18.3795   17.5216 H   0  0  0  0  0  0  0  0  0  0  0  0
   26.4635   21.5504   15.0121 H   0  0  0  0  0  0  0  0  0  0  0  0
   23.5371   16.1317   13.9237 H   0  0  0  0  0  0  0  0  0  0  0  0
   22.8937   17.6509   13.3442 H   0  0  0  0  0  0  0  0  0  0  0  0
   22.3920   13.8201    6.1081 H   0  0  0  0  0  0  0  0  0  0  0  0
  1  2  1  0
  2  3  1  0
  3  4  2  0
  4  5  1  0
  5  6  1  0
  6  7  2  0
  6  8  2  0
  6  9  1  0
  9 10  2  0
 10 11  1  0
 11 12  1  0
 12 13  2  0
 13 14  1  0
 14 15  2  0
 15 16  1  0
 16 17  1  0
 17 18  2  0
 18 19  1  0
 19 20  2  0
 20 21  1  0
 21 22  2  0
 21 23  1  0
 23 24  2  0
 23 25  1  0
 25 26  1  0
 26 27  1  0
 27 28  1  0
 28 29  1  0
 29 30  2  0
 29 31  1  0
 31 32  1  0
 32 33  2  0
 25 34  1  0
 16 35  1  0
 35 36  2  0
  5 37  1  0
 37 38  2  0
 38  3  1  0
 13  9  1  0
 36 14  1  0
 22 17  1  0
 32 26  1  0
 34 20  1  0
  1 39  1  0
  1 40  1  0
  1 41  1  0
  2 42  1  0
  2 43  1  0
  4 44  1  0
 10 45  1  0
 15 46  1  0
 18 47  1  0
 19 48  1  0
 22 49  1  0
 26 50  1  1
 27 51  1  0
 27 52  1  0
 28 53  1  0
 28 54  1  0
 31 55  1  0
 34 56  1  0
 34 57  1  0
 37 58  1  0
M  END
>  <meeko>  (107) 
{"is_sidechain": [true], "free_energy": -14.26, "intermolecular_energy": 0.0, "internal_energy": -14.26, "cluster_size": 20, "cluster_id": 1, "rank_in_cluster": 1}

>  <_RMSD_MCS_to_ref>  (107) 
0.44498252150443385

$$$$
ligand
     RDKit          3D

 64 69  0  0  0  0  0  0  0  0999 V2000
   24.8540    9.4020    7.6050 C   0  0  0  0  0  0  0  0  0  0  0  0
   25.5230   10.7550    7.4270 C   0  0  0  0  0  0  0  0  0  0  0  0
   27.0020   10.6370    7.2980 C   0  0  0  0  0  0  0  0  0  0  0  0
   27.8970   11.5350    6.7520 C   0  0  0  0  0  0  0  0  0  0  0  0
   29.1110   10.9250    6.8890 N   0  0  0  0  0  0  0  0  0  0  0  0
   30.6100   11.6380    6.6250 S   0  0  0  0  0  6  0  0  0  0  0  0
   31.5010   10.5560    6.2580 O   0  0  0  0  0  0  0  0  0  0  0  0
   30.3650   12.7670    5.7490 O   0  0  0  0  0  0  0  0  0  0  0  0
   31.0740   12.2360    8.2250 C   0  0  0  0  0  0  0  0  0  0  0  0
   32.0030   11.5120    8.9850 C   0  0  0  0  0  0  0  0  0  0  0  0
   32.3700   11.9540   10.2650 C   0  0  0  0  0  0  0  0  0  0  0  0
   31.8190   13.1200   10.8000 C   0  0  0  0  0  0  0  0  0  0  0  0
   30.9140   13.8360   10.0330 C   0  0  0  0  0  0  0  0  0  0  0  0
   30.5470   13.4100    8.7470 C   0  0  0  0  0  0  0  0  0  0  0  0
   29.5870   14.3910    8.1480 C   0  0  0  0  0  0  0  0  0  0  0  0
   29.3670   15.3610    9.2220 N   0  0  0  0  0  0  0  0  0  0  0  0
   28.3750   16.3130    9.2730 C   0  0  0  0  0  0  0  0  0  0  0  0
   28.5800   17.5200    9.2070 O   0  0  0  0  0  0  0  0  0  0  0  0
   26.9920   15.8500    9.4800 C   0  0  0  0  0  0  0  0  0  0  0  0
   26.4060   14.8980    8.6320 C   0  0  0  0  0  0  0  0  0  0  0  0
   25.0950   14.4480    8.8690 C   0  0  0  0  0  0  0  0  0  0  0  0
   24.3580   14.9440    9.9470 C   0  0  0  0  0  0  0  0  0  0  0  0
   24.9590   15.8980   10.7490 C   0  0  0  0  0  0  0  0  0  0  0  0
   26.2510   16.3620   10.5290 C   0  0  0  0  0  0  0  0  0  0  0  0
   26.6260   17.3610   11.5670 C   0  0  0  0  0  0  0  0  0  0  0  0
   25.4080   17.4640   12.3620 N   0  0  0  0  0  0  0  0  0  0  0  0
   25.4090   18.1320   13.6580 C   0  0  1  0  0  0  0  0  0  0  0  0
   26.3060   17.4650   14.6990 C   0  0  0  0  0  0  0  0  0  0  0  0
   26.1820   18.2070   16.0200 C   0  0  0  0  0  0  0  0  0  0  0  0
   26.5190   19.6710   15.8600 C   0  0  0  0  0  0  0  0  0  0  0  0
   26.9060   20.3600   16.8000 O   0  0  0  0  0  0  0  0  0  0  0  0
   26.2960   20.2260   14.6250 N   0  0  0  0  0  0  0  0  0  0  0  0
   25.7730   19.6180   13.5050 C   0  0  0  0  0  0  0  0  0  0  0  0
   25.5360   20.2770   12.4930 O   0  0  0  0  0  0  0  0  0  0  0  0
   24.4400   16.5600   11.9510 C   0  0  0  0  0  0  0  0  0  0  0  0
   23.3730   16.3010   12.4730 O   0  0  0  0  0  0  0  0  0  0  0  0
   30.1930   15.0960   10.3950 C   0  0  0  0  0  0  0  0  0  0  0  0
   28.9400    9.7320    7.5160 C   0  0  0  0  0  0  0  0  0  0  0  0
   27.6660    9.5220    7.7730 N   0  0  0  0  0  0  0  0  0  0  0  0
   24.7464    9.1845    8.6779 H   0  0  0  0  0  0  0  0  0  0  0  0
   23.8606    9.4192    7.1330 H   0  0  0  0  0  0  0  0  0  0  0  0
   25.4708    8.6230    7.1330 H   0  0  0  0  0  0  0  0  0  0  0  0
   25.1247   11.2307    6.5186 H   0  0  0  0  0  0  0  0  0  0  0  0
   25.3085   11.3588    8.3211 H   0  0  0  0  0  0  0  0  0  0  0  0
   27.6814   12.5179    6.3078 H   0  0  0  0  0  0  0  0  0  0  0  0
   32.4467   10.5924    8.5757 H   0  0  0  0  0  0  0  0  0  0  0  0
   33.0988   11.3764   10.8526 H   0  0  0  0  0  0  0  0  0  0  0  0
   32.0971   13.4625   11.8077 H   0  0  0  0  0  0  0  0  0  0  0  0
   30.0241   14.8775    7.2635 H   0  0  0  0  0  0  0  0  0  0  0  0
   28.6554   13.9191    7.8023 H   0  0  0  0  0  0  0  0  0  0  0  0
   26.9748   14.5019    7.7779 H   0  0  0  0  0  0  0  0  0  0  0  0
   24.6461   13.6991    8.1999 H   0  0  0  0  0  0  0  0  0  0  0  0
   23.3370   14.5891   10.1509 H   0  0  0  0  0  0  0  0  0  0  0  0
   27.4691   17.0035   12.1763 H   0  0  0  0  0  0  0  0  0  0  0  0
   26.9592   18.3226   11.1495 H   0  0  0  0  0  0  0  0  0  0  0  0
   24.3817   18.0426   14.0409 H   0  0  0  0  0  0  0  0  0  0  0  0
   25.9954   16.4186   14.8350 H   0  0  0  0  0  0  0  0  0  0  0  0
   27.3511   17.4942   14.3572 H   0  0  0  0  0  0  0  0  0  0  0  0
   25.1492   18.1149   16.3873 H   0  0  0  0  0  0  0  0  0  0  0  0
   26.8901   17.7635   16.7355 H   0  0  0  0  0  0  0  0  0  0  0  0
   26.5509   21.2187   14.5229 H   0  0  0  0  0  0  0  0  0  0  0  0
   30.9018   15.9185   10.5714 H   0  0  0  0  0  0  0  0  0  0  0  0
   29.6071   15.0048   11.3215 H   0  0  0  0  0  0  0  0  0  0  0  0
   29.7534    9.0376    7.7733 H   0  0  0  0  0  0  0  0  0  0  0  0
  1  2  1  0
  2  3  1  0
  3  4  2  0
  4  5  1  0
  5  6  1  0
  6  7  2  0
  6  8  2  0
  6  9  1  0
  9 10  2  0
 10 11  1  0
 11 12  2  0
 12 13  1  0
 13 14  2  0
 14 15  1  0
 15 16  1  0
 16 17  1  0
 17 18  2  0
 17 19  1  0
 19 20  2  0
 20 21  1  0
 21 22  2  0
 22 23  1  0
 23 24  2  0
 24 25  1  0
 25 26  1  0
 26 27  1  0
 27 28  1  0
 28 29  1  0
 29 30  1  0
 30 31  2  0
 30 32  1  0
 32 33  1  0
 33 34  2  0
 26 35  1  0
 35 36  2  0
 16 37  1  0
  5 38  1  0
 38 39  2  0
 39  3  1  0
 14  9  1  0
 24 19  1  0
 33 27  1  0
 37 13  1  0
 35 23  1  0
  1 40  1  0
  1 41  1  0
  1 42  1  0
  2 43  1  0
  2 44  1  0
  4 45  1  0
 10 46  1  0
 11 47  1  0
 12 48  1  0
 15 49  1  0
 15 50  1  0
 20 51  1  0
 21 52  1  0
 22 53  1  0
 25 54  1  0
 25 55  1  0
 27 56  1  1
 28 57  1  0
 28 58  1  0
 29 59  1  0
 29 60  1  0
 32 61  1  0
 37 62  1  0
 37 63  1  0
 38 64  1  0
M  END
>  <meeko>  (108) 
{"is_sidechain": [true], "free_energy": -14.26, "intermolecular_energy": 0.0, "internal_energy": -14.26, "cluster_size": 20, "cluster_id": 1, "rank_in_cluster": 1}

>  <_RMSD_MCS_to_ref>  (108) 
1.0749590173066546

$$$$
ligand
     RDKit          3D

 61 66  0  0  0  0  0  0  0  0999 V2000
   24.8710    9.6160    7.7820 C   0  0  0  0  0  0  0  0  0  0  0  0
   25.4240   10.9650    7.3490 C   0  0  0  0  0  0  0  0  0  0  0  0
   26.9000   10.9330    7.1650 C   0  0  0  0  0  0  0  0  0  0  0  0
   27.8650   11.7390    7.7390 C   0  0  0  0  0  0  0  0  0  0  0  0
   29.0440   11.2490    7.2520 N   0  0  0  0  0  0  0  0  0  0  0  0
   30.5570   11.9780    7.4120 S   0  0  0  0  0  6  0  0  0  0  0  0
   31.4500   11.1170    6.6580 O   0  0  0  0  0  0  0  0  0  0  0  0
   30.7100   12.1760    8.8410 O   0  0  0  0  0  0  0  0  0  0  0  0
   30.4260   13.4170    6.6680 O   0  0  0  0  0  0  0  0  0  0  0  0
   29.3320   13.8460    6.0070 C   0  0  0  0  0  0  0  0  0  0  0  0
   29.2810   13.7120    4.6390 C   0  0  0  0  0  0  0  0  0  0  0  0
   28.0820   14.2100    4.2150 N   0  0  0  0  0  0  0  0  0  0  0  0
   27.3510   14.6660    5.2880 C   0  0  0  0  0  0  0  0  0  0  0  0
   26.0790   15.2470    5.3090 C   0  0  0  0  0  0  0  0  0  0  0  0
   25.5550   15.6240    6.5490 C   0  0  0  0  0  0  0  0  0  0  0  0
   26.2670   15.4360    7.7380 C   0  0  0  0  0  0  0  0  0  0  0  0
   25.6910   15.8380    9.0340 C   0  0  0  0  0  0  0  0  0  0  0  0
   24.3480   15.5150    9.3550 C   0  0  0  0  0  0  0  0  0  0  0  0
   23.7760   15.8870   10.5740 C   0  0  0  0  0  0  0  0  0  0  0  0
   24.5740   16.5790   11.4610 C   0  0  0  0  0  0  0  0  0  0  0  0
   25.8970   16.9110   11.1820 C   0  0  0  0  0  0  0  0  0  0  0  0
   26.4660   16.5500    9.9720 C   0  0  0  0  0  0  0  0  0  0  0  0
   26.4880   17.6650   12.3260 C   0  0  0  0  0  0  0  0  0  0  0  0
   25.4110   17.6500   13.3070 N   0  0  0  0  0  0  0  0  0  0  0  0
   25.4090   18.4660   14.5150 C   0  0  1  0  0  0  0  0  0  0  0  0
   26.3100   17.8930   15.6060 C   0  0  0  0  0  0  0  0  0  0  0  0
   26.1850   18.7440   16.8610 C   0  0  0  0  0  0  0  0  0  0  0  0
   26.4980   20.1930   16.5710 C   0  0  0  0  0  0  0  0  0  0  0  0
   27.0790   20.9140   17.3770 O   0  0  0  0  0  0  0  0  0  0  0  0
   26.0840   20.6790   15.3570 N   0  0  0  0  0  0  0  0  0  0  0  0
   25.8250   19.9210   14.2380 C   0  0  0  0  0  0  0  0  0  0  0  0
   25.9410   20.4120   13.1170 O   0  0  0  0  0  0  0  0  0  0  0  0
   24.2480   17.0910   12.7980 C   0  0  0  0  0  0  0  0  0  0  0  0
   23.1560   17.0210   13.3280 O   0  0  0  0  0  0  0  0  0  0  0  0
   27.5470   14.8490    7.6770 C   0  0  0  0  0  0  0  0  0  0  0  0
   28.1120   14.4510    6.4420 C   0  0  0  0  0  0  0  0  0  0  0  0
   28.7780   10.2550    6.3640 C   0  0  0  0  0  0  0  0  0  0  0  0
   27.4840   10.0200    6.3070 N   0  0  0  0  0  0  0  0  0  0  0  0
   24.8497    9.5640    8.8806 H   0  0  0  0  0  0  0  0  0  0  0  0
   23.8507    9.4948    7.3893 H   0  0  0  0  0  0  0  0  0  0  0  0
   25.5127    8.8135    7.3893 H   0  0  0  0  0  0  0  0  0  0  0  0
   24.9542   11.2516    6.3966 H   0  0  0  0  0  0  0  0  0  0  0  0
   25.1976   11.6935    8.1414 H   0  0  0  0  0  0  0  0  0  0  0  0
   27.7176   12.5822    8.4299 H   0  0  0  0  0  0  0  0  0  0  0  0
   30.0659   13.2807    4.0004 H   0  0  0  0  0  0  0  0  0  0  0  0
   27.7700   14.2399    3.2338 H   0  0  0  0  0  0  0  0  0  0  0  0
   25.5098   15.4022    4.3806 H   0  0  0  0  0  0  0  0  0  0  0  0
   24.5553   16.0810    6.5907 H   0  0  0  0  0  0  0  0  0  0  0  0
   23.7415   14.9576    8.6259 H   0  0  0  0  0  0  0  0  0  0  0  0
   22.7323   15.6383   10.8165 H   0  0  0  0  0  0  0  0  0  0  0  0
   27.5092   16.8154    9.7458 H   0  0  0  0  0  0  0  0  0  0  0  0
   27.3850   17.1598   12.7134 H   0  0  0  0  0  0  0  0  0  0  0  0
   26.8205   18.6784   12.0569 H   0  0  0  0  0  0  0  0  0  0  0  0
   24.3680   18.4531   14.8701 H   0  0  0  0  0  0  0  0  0  0  0  0
   26.0040   16.8605   15.8304 H   0  0  0  0  0  0  0  0  0  0  0  0
   27.3544   17.8973   15.2608 H   0  0  0  0  0  0  0  0  0  0  0  0
   25.1569   18.6687   17.2448 H   0  0  0  0  0  0  0  0  0  0  0  0
   26.9048   18.3742   17.6061 H   0  0  0  0  0  0  0  0  0  0  0  0
   25.9561   21.6978   15.2760 H   0  0  0  0  0  0  0  0  0  0  0  0
   28.1168   14.6976    8.6057 H   0  0  0  0  0  0  0  0  0  0  0  0
   29.5383    9.7212    5.7749 H   0  0  0  0  0  0  0  0  0  0  0  0
  1  2  1  0
  2  3  1  0
  3  4  2  0
  4  5  1  0
  5  6  1  0
  6  7  2  0
  6  8  2  0
  6  9  1  0
  9 10  1  0
 10 11  2  0
 11 12  1  0
 12 13  1  0
 13 14  2  0
 14 15  1  0
 15 16  2  0
 16 17  1  0
 17 18  2  0
 18 19  1  0
 19 20  2  0
 20 21  1  0
 21 22  2  0
 21 23  1  0
 23 24  1  0
 24 25  1  0
 25 26  1  0
 26 27  1  0
 27 28  1  0
 28 29  2  0
 28 30  1  0
 30 31  1  0
 31 32  2  0
 24 33  1  0
 33 34  2  0
 16 35  1  0
 35 36  2  0
  5 37  1  0
 37 38  2  0
 38  3  1  0
 36 10  1  0
 36 13  1  0
 22 17  1  0
 31 25  1  0
 33 20  1  0
  1 39  1  0
  1 40  1  0
  1 41  1  0
  2 42  1  0
  2 43  1  0
  4 44  1  0
 11 45  1  0
 12 46  1  0
 14 47  1  0
 15 48  1  0
 18 49  1  0
 19 50  1  0
 22 51  1  0
 23 52  1  0
 23 53  1  0
 25 54  1  1
 26 55  1  0
 26 56  1  0
 27 57  1  0
 27 58  1  0
 30 59  1  0
 35 60  1  0
 37 61  1  0
M  END
>  <meeko>  (109) 
{"is_sidechain": [true], "free_energy": -14.26, "intermolecular_energy": 0.0, "internal_energy": -14.26, "cluster_size": 17, "cluster_id": 1, "rank_in_cluster": 1}

>  <_RMSD_MCS_to_ref>  (109) 
0.716326153295227

$$$$
ligand
     RDKit          3D

 56 60  0  0  0  0  0  0  0  0999 V2000
   24.8540    9.4020    7.6050 C   0  0  0  0  0  0  0  0  0  0  0  0
   25.5230   10.7550    7.4270 C   0  0  0  0  0  0  0  0  0  0  0  0
   26.9870   10.6980    7.6930 C   0  0  0  0  0  0  0  0  0  0  0  0
   27.8120   11.6880    8.1870 C   0  0  0  0  0  0  0  0  0  0  0  0
   29.0460   11.1050    8.2280 N   0  0  0  0  0  0  0  0  0  0  0  0
   30.4990   11.8240    8.6860 S   0  0  0  0  0  6  0  0  0  0  0  0
   31.4370   10.7360    8.9000 O   0  0  0  0  0  0  0  0  0  0  0  0
   30.7400   12.8050    7.6410 O   0  0  0  0  0  0  0  0  0  0  0  0
   30.2790   12.6470   10.0740 O   0  0  0  0  0  0  0  0  0  0  0  0
   29.7010   13.8850   10.0070 C   0  0  0  0  0  0  0  0  0  0  0  0
   30.5220   14.9730    9.7730 C   0  0  0  0  0  0  0  0  0  0  0  0
   29.9310   16.2260    9.6750 C   0  0  0  0  0  0  0  0  0  0  0  0
   28.5480   16.3380    9.8030 C   0  0  0  0  0  0  0  0  0  0  0  0
   27.7920   15.1850   10.0110 C   0  0  0  0  0  0  0  0  0  0  0  0
   26.3330   15.2200   10.1630 C   0  0  0  0  0  0  0  0  0  0  0  0
   25.4810   14.5370    9.2670 C   0  0  0  0  0  0  0  0  0  0  0  0
   24.0770   14.5750    9.3950 C   0  0  0  0  0  0  0  0  0  0  0  0
   23.4800   15.3010   10.4220 C   0  0  0  0  0  0  0  0  0  0  0  0
   24.3190   15.9690   11.2910 C   0  0  0  0  0  0  0  0  0  0  0  0
   25.7100   15.9380   11.1820 C   0  0  0  0  0  0  0  0  0  0  0  0
   26.3130   16.7240   12.3010 C   0  0  0  0  0  0  0  0  0  0  0  0
   25.1490   17.3110   12.9470 N   0  0  0  0  0  0  0  0  0  0  0  0
   25.2800   18.0870   14.1720 C   0  0  1  0  0  0  0  0  0  0  0  0
   26.3010   17.5190   15.1570 C   0  0  0  0  0  0  0  0  0  0  0  0
   26.3190   18.3740   16.4140 C   0  0  0  0  0  0  0  0  0  0  0  0
   26.6140   19.8190   16.0890 C   0  0  0  0  0  0  0  0  0  0  0  0
   27.0860   20.5940   16.9180 O   0  0  0  0  0  0  0  0  0  0  0  0
   26.2530   20.2570   14.8400 N   0  0  0  0  0  0  0  0  0  0  0  0
   25.5900   19.5580   13.8570 C   0  0  0  0  0  0  0  0  0  0  0  0
   25.1920   20.1370   12.8470 O   0  0  0  0  0  0  0  0  0  0  0  0
   23.9640   16.8080   12.4420 C   0  0  0  0  0  0  0  0  0  0  0  0
   22.8300   16.9950   12.8360 O   0  0  0  0  0  0  0  0  0  0  0  0
   28.3600   13.9560   10.0940 N   0  0  0  0  0  0  0  0  0  0  0  0
   28.9520    9.8290    7.7730 C   0  0  0  0  0  0  0  0  0  0  0  0
   27.7120    9.5490    7.4290 N   0  0  0  0  0  0  0  0  0  0  0  0
   24.7464    9.1845    8.6779 H   0  0  0  0  0  0  0  0  0  0  0  0
   23.8606    9.4192    7.1330 H   0  0  0  0  0  0  0  0  0  0  0  0
   25.4708    8.6230    7.1330 H   0  0  0  0  0  0  0  0  0  0  0  0
   25.3638   11.0956    6.3933 H   0  0  0  0  0  0  0  0  0  0  0  0
   25.0750   11.4511    8.1514 H   0  0  0  0  0  0  0  0  0  0  0  0
   27.5381   12.7121    8.4805 H   0  0  0  0  0  0  0  0  0  0  0  0
   31.6100   14.8497    9.6677 H   0  0  0  0  0  0  0  0  0  0  0  0
   30.5476   17.1197    9.4984 H   0  0  0  0  0  0  0  0  0  0  0  0
   28.0597   17.3217    9.7409 H   0  0  0  0  0  0  0  0  0  0  0  0
   25.9261   13.9579    8.4445 H   0  0  0  0  0  0  0  0  0  0  0  0
   23.4487   14.0267    8.6777 H   0  0  0  0  0  0  0  0  0  0  0  0
   22.3866   15.3406   10.5360 H   0  0  0  0  0  0  0  0  0  0  0  0
   26.8625   16.0696   12.9936 H   0  0  0  0  0  0  0  0  0  0  0  0
   27.0461   17.4711   11.9626 H   0  0  0  0  0  0  0  0  0  0  0  0
   24.3039   18.0206   14.6749 H   0  0  0  0  0  0  0  0  0  0  0  0
   26.0238   16.4872   15.4188 H   0  0  0  0  0  0  0  0  0  0  0  0
   27.2993   17.5233   14.6951 H   0  0  0  0  0  0  0  0  0  0  0  0
   25.3368   18.3102   16.9051 H   0  0  0  0  0  0  0  0  0  0  0  0
   27.1109   17.9984   17.0787 H   0  0  0  0  0  0  0  0  0  0  0  0
   26.5095   21.2276   14.6097 H   0  0  0  0  0  0  0  0  0  0  0  0
   29.7952    9.1262    7.7016 H   0  0  0  0  0  0  0  0  0  0  0  0
  1  2  1  0
  2  3  1  0
  3  4  2  0
  4  5  1  0
  5  6  1  0
  6  7  2  0
  6  8  2  0
  6  9  1  0
  9 10  1  0
 10 11  2  0
 11 12  1  0
 12 13  2  0
 13 14  1  0
 14 15  1  0
 15 16  2  0
 16 17  1  0
 17 18  2  0
 18 19  1  0
 19 20  2  0
 20 21  1  0
 21 22  1  0
 22 23  1  0
 23 24  1  0
 24 25  1  0
 25 26  1  0
 26 27  2  0
 26 28  1  0
 28 29  1  0
 29 30  2  0
 22 31  1  0
 31 32  2  0
 14 33  2  0
  5 34  1  0
 34 35  2  0
 35  3  1  0
 33 10  1  0
 20 15  1  0
 29 23  1  0
 31 19  1  0
  1 36  1  0
  1 37  1  0
  1 38  1  0
  2 39  1  0
  2 40  1  0
  4 41  1  0
 11 42  1  0
 12 43  1  0
 13 44  1  0
 16 45  1  0
 17 46  1  0
 18 47  1  0
 21 48  1  0
 21 49  1  0
 23 50  1  1
 24 51  1  0
 24 52  1  0
 25 53  1  0
 25 54  1  0
 28 55  1  0
 34 56  1  0
M  END
>  <meeko>  (110) 
{"is_sidechain": [true], "free_energy": -14.25, "intermolecular_energy": 0.0, "internal_energy": -14.25, "cluster_size": 20, "cluster_id": 1, "rank_in_cluster": 1}

>  <_RMSD_MCS_to_ref>  (110) 
0.712678047929077

$$$$
ligand
     RDKit          3D

 61 66  0  0  0  0  0  0  0  0999 V2000
   24.8540    9.4020    7.6050 C   0  0  0  0  0  0  0  0  0  0  0  0
   25.5230   10.7550    7.4270 C   0  0  0  0  0  0  0  0  0  0  0  0
   24.7850   11.6260    6.4730 C   0  0  0  0  0  0  0  0  0  0  0  0
   25.2350   12.2100    5.3050 C   0  0  0  0  0  0  0  0  0  0  0  0
   24.1500   12.8890    4.8300 N   0  0  0  0  0  0  0  0  0  0  0  0
   24.1400   13.9990    3.5580 S   0  0  0  0  0  6  0  0  0  0  0  0
   25.0200   13.4400    2.5440 O   0  0  0  0  0  0  0  0  0  0  0  0
   22.7320   14.2130    3.2810 O   0  0  0  0  0  0  0  0  0  0  0  0
   24.7690   15.4080    4.0940 O   0  0  0  0  0  0  0  0  0  0  0  0
   25.6650   15.4050    5.1400 C   0  0  0  0  0  0  0  0  0  0  0  0
   25.1750   15.7330    6.4090 C   0  0  0  0  0  0  0  0  0  0  0  0
   26.0090   15.7570    7.5350 C   0  0  0  0  0  0  0  0  0  0  0  0
   25.4660   16.0790    8.8640 C   0  0  0  0  0  0  0  0  0  0  0  0
   24.2670   15.4710    9.3160 C   0  0  0  0  0  0  0  0  0  0  0  0
   23.7320   15.7570   10.5750 C   0  0  0  0  0  0  0  0  0  0  0  0
   24.4170   16.6580   11.3640 C   0  0  0  0  0  0  0  0  0  0  0  0
   25.5960   17.2720   10.9540 C   0  0  0  0  0  0  0  0  0  0  0  0
   26.1330   16.9920    9.7080 C   0  0  0  0  0  0  0  0  0  0  0  0
   26.1070   18.1630   12.0340 C   0  0  0  0  0  0  0  0  0  0  0  0
   25.0530   18.0900   13.0370 N   0  0  0  0  0  0  0  0  0  0  0  0
   25.2370   18.6490   14.3720 C   0  0  1  0  0  0  0  0  0  0  0  0
   26.3030   17.9300   15.1990 C   0  0  0  0  0  0  0  0  0  0  0  0
   26.3670   18.5530   16.5860 C   0  0  0  0  0  0  0  0  0  0  0  0
   26.6410   20.0360   16.5090 C   0  0  0  0  0  0  0  0  0  0  0  0
   27.1340   20.6590   17.4440 O   0  0  0  0  0  0  0  0  0  0  0  0
   26.2310   20.6800   15.3690 N   0  0  0  0  0  0  0  0  0  0  0  0
   25.5290   20.1570   14.3080 C   0  0  0  0  0  0  0  0  0  0  0  0
   25.0820   20.8980   13.4330 O   0  0  0  0  0  0  0  0  0  0  0  0
   24.0980   17.1360   12.7140 C   0  0  0  0  0  0  0  0  0  0  0  0
   23.1750   16.7300   13.3910 O   0  0  0  0  0  0  0  0  0  0  0  0
   27.3760   15.4640    7.3730 C   0  0  0  0  0  0  0  0  0  0  0  0
   27.8990   15.1650    6.0980 C   0  0  0  0  0  0  0  0  0  0  0  0
   29.2000   14.8520    5.6170 C   0  0  0  0  0  0  0  0  0  0  0  0
   29.1060   14.6530    4.2590 C   0  0  0  0  0  0  0  0  0  0  0  0
   27.8000   14.8450    3.8960 N   0  0  0  0  0  0  0  0  0  0  0  0
   27.0350   15.1460    5.0030 C   0  0  0  0  0  0  0  0  0  0  0  0
   23.1210   12.7520    5.7060 C   0  0  0  0  0  0  0  0  0  0  0  0
   23.4690   11.9720    6.7080 N   0  0  0  0  0  0  0  0  0  0  0  0
   24.7464    9.1845    8.6779 H   0  0  0  0  0  0  0  0  0  0  0  0
   23.8606    9.4192    7.1330 H   0  0  0  0  0  0  0  0  0  0  0  0
   25.4708    8.6230    7.1330 H   0  0  0  0  0  0  0  0  0  0  0  0
   25.5688   11.2587    8.4038 H   0  0  0  0  0  0  0  0  0  0  0  0
   26.5294   10.5827    7.0176 H   0  0  0  0  0  0  0  0  0  0  0  0
   26.2384   12.1433    4.8593 H   0  0  0  0  0  0  0  0  0  0  0  0
   24.1090   15.9780    6.5256 H   0  0  0  0  0  0  0  0  0  0  0  0
   23.7461   14.7577    8.6603 H   0  0  0  0  0  0  0  0  0  0  0  0
   22.8023   15.2829   10.9228 H   0  0  0  0  0  0  0  0  0  0  0  0
   27.0660   17.4745    9.3814 H   0  0  0  0  0  0  0  0  0  0  0  0
   27.0620   17.7925   12.4349 H   0  0  0  0  0  0  0  0  0  0  0  0
   26.3133   19.1880   11.6923 H   0  0  0  0  0  0  0  0  0  0  0  0
   24.2819   18.4890   14.8937 H   0  0  0  0  0  0  0  0  0  0  0  0
   26.0440   16.8645   15.2862 H   0  0  0  0  0  0  0  0  0  0  0  0
   27.2811   18.0277   14.7052 H   0  0  0  0  0  0  0  0  0  0  0  0
   25.4056   18.3922   17.0958 H   0  0  0  0  0  0  0  0  0  0  0  0
   27.1872   18.0768   17.1431 H   0  0  0  0  0  0  0  0  0  0  0  0
   26.4793   21.6772   15.2991 H   0  0  0  0  0  0  0  0  0  0  0  0
   28.0421   15.4683    8.2484 H   0  0  0  0  0  0  0  0  0  0  0  0
   30.1162   14.7817    6.2216 H   0  0  0  0  0  0  0  0  0  0  0  0
   29.9333   14.3869    3.5846 H   0  0  0  0  0  0  0  0  0  0  0  0
   27.4402   14.7747    2.9334 H   0  0  0  0  0  0  0  0  0  0  0  0
   22.1349   13.2264    5.5940 H   0  0  0  0  0  0  0  0  0  0  0  0
  1  2  1  0
  2  3  1  0
  3  4  2  0
  4  5  1  0
  5  6  1  0
  6  7  2  0
  6  8  2  0
  6  9  1  0
  9 10  1  0
 10 11  2  0
 11 12  1  0
 12 13  1  0
 13 14  2  0
 14 15  1  0
 15 16  2  0
 16 17  1  0
 17 18  2  0
 17 19  1  0
 19 20  1  0
 20 21  1  0
 21 22  1  0
 22 23  1  0
 23 24  1  0
 24 25  2  0
 24 26  1  0
 26 27  1  0
 27 28  2  0
 20 29  1  0
 29 30  2  0
 12 31  2  0
 31 32  1  0
 32 33  1  0
 33 34  2  0
 34 35  1  0
 35 36  1  0
  5 37  1  0
 37 38  2  0
 38  3  1  0
 36 10  1  0
 18 13  1  0
 27 21  1  0
 36 32  2  0
 29 16  1  0
  1 39  1  0
  1 40  1  0
  1 41  1  0
  2 42  1  0
  2 43  1  0
  4 44  1  0
 11 45  1  0
 14 46  1  0
 15 47  1  0
 18 48  1  0
 19 49  1  0
 19 50  1  0
 21 51  1  1
 22 52  1  0
 22 53  1  0
 23 54  1  0
 23 55  1  0
 26 56  1  0
 31 57  1  0
 33 58  1  0
 34 59  1  0
 35 60  1  0
 37 61  1  0
M  END
>  <meeko>  (111) 
{"is_sidechain": [true], "free_energy": -14.25, "intermolecular_energy": 0.0, "internal_energy": -14.25, "cluster_size": 17, "cluster_id": 1, "rank_in_cluster": 1}

>  <_RMSD_MCS_to_ref>  (111) 
0.5035446576245464

$$$$
ligand
     RDKit          3D

 61 66  0  0  0  0  0  0  0  0999 V2000
   24.8710    9.6160    7.7820 C   0  0  0  0  0  0  0  0  0  0  0  0
   25.4240   10.9650    7.3490 C   0  0  0  0  0  0  0  0  0  0  0  0
   26.8240   11.1700    7.8070 C   0  0  0  0  0  0  0  0  0  0  0  0
   27.2760   11.6300    9.0280 C   0  0  0  0  0  0  0  0  0  0  0  0
   28.6350   11.6390    8.9020 N   0  0  0  0  0  0  0  0  0  0  0  0
   29.7280   12.3980    9.9450 S   0  0  0  0  0  6  0  0  0  0  0  0
   29.2920   12.0520   11.2880 O   0  0  0  0  0  0  0  0  0  0  0  0
   31.0320   11.9890    9.4560 O   0  0  0  0  0  0  0  0  0  0  0  0
   29.5920   14.0160    9.7440 O   0  0  0  0  0  0  0  0  0  0  0  0
   28.5130   14.5110    9.0470 C   0  0  0  0  0  0  0  0  0  0  0  0
   27.3260   14.7320    9.7520 C   0  0  0  0  0  0  0  0  0  0  0  0
   26.1970   15.2730    9.1260 C   0  0  0  0  0  0  0  0  0  0  0  0
   24.9810   15.5420    9.8990 C   0  0  0  0  0  0  0  0  0  0  0  0
   23.7100   15.2270    9.3760 C   0  0  0  0  0  0  0  0  0  0  0  0
   22.5270   15.4860   10.0950 C   0  0  0  0  0  0  0  0  0  0  0  0
   22.5820   16.0720   11.3580 C   0  0  0  0  0  0  0  0  0  0  0  0
   23.8330   16.3750   11.8600 C   0  0  0  0  0  0  0  0  0  0  0  0
   25.0150   16.1230   11.1620 C   0  0  0  0  0  0  0  0  0  0  0  0
   26.1800   16.6110   11.9610 C   0  0  0  0  0  0  0  0  0  0  0  0
   25.5630   17.0440   13.2070 N   0  0  0  0  0  0  0  0  0  0  0  0
   26.3170   17.8000   14.2010 C   0  0  2  0  0  0  0  0  0  0  0  0
   25.7920   17.6350   15.6270 C   0  0  0  0  0  0  0  0  0  0  0  0
   26.6840   18.4110   16.5840 C   0  0  0  0  0  0  0  0  0  0  0  0
   26.7680   19.8690   16.1950 C   0  0  0  0  0  0  0  0  0  0  0  0
   27.0600   20.7450   17.0040 O   0  0  0  0  0  0  0  0  0  0  0  0
   26.5840   20.1640   14.8680 N   0  0  0  0  0  0  0  0  0  0  0  0
   26.3970   19.2880   13.8230 C   0  0  0  0  0  0  0  0  0  0  0  0
   26.4060   19.6950   12.6620 O   0  0  0  0  0  0  0  0  0  0  0  0
   24.1790   17.0080   13.1380 C   0  0  0  0  0  0  0  0  0  0  0  0
   23.3710   17.4250   13.9440 O   0  0  0  0  0  0  0  0  0  0  0  0
   26.2530   15.5700    7.7510 C   0  0  0  0  0  0  0  0  0  0  0  0
   27.4280   15.3180    7.0130 C   0  0  0  0  0  0  0  0  0  0  0  0
   27.7960   15.4970    5.6520 C   0  0  0  0  0  0  0  0  0  0  0  0
   29.1000   15.0830    5.5140 C   0  0  0  0  0  0  0  0  0  0  0  0
   29.5380   14.6530    6.7380 N   0  0  0  0  0  0  0  0  0  0  0  0
   28.5370   14.7900    7.6750 C   0  0  0  0  0  0  0  0  0  0  0  0
   28.9690   11.2310    7.6490 C   0  0  0  0  0  0  0  0  0  0  0  0
   27.8880   10.9260    6.9610 N   0  0  0  0  0  0  0  0  0  0  0  0
   24.8497    9.5640    8.8806 H   0  0  0  0  0  0  0  0  0  0  0  0
   23.8507    9.4948    7.3893 H   0  0  0  0  0  0  0  0  0  0  0  0
   25.5127    8.8135    7.3893 H   0  0  0  0  0  0  0  0  0  0  0  0
   25.3982   11.0227    6.2508 H   0  0  0  0  0  0  0  0  0  0  0  0
   24.8007   11.7483    7.8051 H   0  0  0  0  0  0  0  0  0  0  0  0
   26.6771   11.9226    9.9030 H   0  0  0  0  0  0  0  0  0  0  0  0
   27.2784   14.4754   10.8206 H   0  0  0  0  0  0  0  0  0  0  0  0
   23.6406   14.7665    8.3794 H   0  0  0  0  0  0  0  0  0  0  0  0
   21.5528   15.2239    9.6565 H   0  0  0  0  0  0  0  0  0  0  0  0
   21.6676   16.2845   11.9314 H   0  0  0  0  0  0  0  0  0  0  0  0
   26.9044   15.8025   12.1384 H   0  0  0  0  0  0  0  0  0  0  0  0
   26.7478   17.4077   11.4582 H   0  0  0  0  0  0  0  0  0  0  0  0
   27.3302   17.3717   14.1939 H   0  0  0  0  0  0  0  0  0  0  0  0
   24.7641   18.0220   15.6872 H   0  0  0  0  0  0  0  0  0  0  0  0
   25.7970   16.5696   15.9006 H   0  0  0  0  0  0  0  0  0  0  0  0
   26.2711   18.3345   17.6007 H   0  0  0  0  0  0  0  0  0  0  0  0
   27.6957   17.9812   16.5419 H   0  0  0  0  0  0  0  0  0  0  0  0
   26.5860   21.1646   14.6235 H   0  0  0  0  0  0  0  0  0  0  0  0
   25.3745   16.0015    7.2490 H   0  0  0  0  0  0  0  0  0  0  0  0
   27.1534   15.8951    4.8529 H   0  0  0  0  0  0  0  0  0  0  0  0
   29.6877   15.0951    4.5842 H   0  0  0  0  0  0  0  0  0  0  0  0
   30.4791   14.2811    6.9304 H   0  0  0  0  0  0  0  0  0  0  0  0
   29.9973   11.1649    7.2639 H   0  0  0  0  0  0  0  0  0  0  0  0
  1  2  1  0
  2  3  1  0
  3  4  2  0
  4  5  1  0
  5  6  1  0
  6  7  2  0
  6  8  2  0
  6  9  1  0
  9 10  1  0
 10 11  2  0
 11 12  1  0
 12 13  1  0
 13 14  2  0
 14 15  1  0
 15 16  2  0
 16 17  1  0
 17 18  2  0
 18 19  1  0
 19 20  1  0
 20 21  1  0
 21 22  1  0
 22 23  1  0
 23 24  1  0
 24 25  2  0
 24 26  1  0
 26 27  1  0
 27 28  2  0
 20 29  1  0
 29 30  2  0
 12 31  2  0
 31 32  1  0
 32 33  1  0
 33 34  2  0
 34 35  1  0
 35 36  1  0
  5 37  1  0
 37 38  2  0
 38  3  1  0
 36 10  1  0
 18 13  1  0
 27 21  1  0
 36 32  2  0
 29 17  1  0
  1 39  1  0
  1 40  1  0
  1 41  1  0
  2 42  1  0
  2 43  1  0
  4 44  1  0
 11 45  1  0
 14 46  1  0
 15 47  1  0
 16 48  1  0
 19 49  1  0
 19 50  1  0
 21 51  1  1
 22 52  1  0
 22 53  1  0
 23 54  1  0
 23 55  1  0
 26 56  1  0
 31 57  1  0
 33 58  1  0
 34 59  1  0
 35 60  1  0
 37 61  1  0
M  END
>  <meeko>  (112) 
{"is_sidechain": [true], "free_energy": -14.25, "intermolecular_energy": 0.0, "internal_energy": -14.25, "cluster_size": 15, "cluster_id": 1, "rank_in_cluster": 1}

>  <_RMSD_MCS_to_ref>  (112) 
1.1761797859548886

$$$$
ligand
     RDKit          3D

 61 66  0  0  0  0  0  0  0  0999 V2000
   24.8710    9.6160    7.7820 C   0  0  0  0  0  0  0  0  0  0  0  0
   25.4240   10.9650    7.3490 C   0  0  0  0  0  0  0  0  0  0  0  0
   26.8900   10.9160    7.0970 C   0  0  0  0  0  0  0  0  0  0  0  0
   27.9320   11.0610    7.9920 C   0  0  0  0  0  0  0  0  0  0  0  0
   29.0540   10.8920    7.2310 N   0  0  0  0  0  0  0  0  0  0  0  0
   30.6370   11.1900    7.7270 S   0  0  0  0  0  6  0  0  0  0  0  0
   31.0960    9.9220    8.2640 O   0  0  0  0  0  0  0  0  0  0  0  0
   31.2740   11.8000    6.5750 O   0  0  0  0  0  0  0  0  0  0  0  0
   30.5260   12.2830    8.9300 O   0  0  0  0  0  0  0  0  0  0  0  0
   29.4350   13.1020    9.0890 C   0  0  0  0  0  0  0  0  0  0  0  0
   28.6160   12.7750   10.1730 C   0  0  0  0  0  0  0  0  0  0  0  0
   27.4680   13.5200   10.4620 C   0  0  0  0  0  0  0  0  0  0  0  0
   27.1310   14.6160    9.6440 C   0  0  0  0  0  0  0  0  0  0  0  0
   26.0660   15.5680    9.6350 C   0  0  0  0  0  0  0  0  0  0  0  0
   24.9190   15.6830   10.5100 C   0  0  0  0  0  0  0  0  0  0  0  0
   23.6660   15.1850   10.1140 C   0  0  0  0  0  0  0  0  0  0  0  0
   22.5380   15.3040   10.9500 C   0  0  0  0  0  0  0  0  0  0  0  0
   22.6440   15.9200   12.1960 C   0  0  0  0  0  0  0  0  0  0  0  0
   23.8890   16.3940   12.5680 C   0  0  0  0  0  0  0  0  0  0  0  0
   25.0160   16.2880   11.7540 C   0  0  0  0  0  0  0  0  0  0  0  0
   26.1910   16.8990   12.4400 C   0  0  0  0  0  0  0  0  0  0  0  0
   25.6510   17.2670   13.7430 N   0  0  0  0  0  0  0  0  0  0  0  0
   26.4050   18.1170   14.6580 C   0  0  2  0  0  0  0  0  0  0  0  0
   26.0410   17.9140   16.1290 C   0  0  0  0  0  0  0  0  0  0  0  0
   26.9260   18.7980   16.9930 C   0  0  0  0  0  0  0  0  0  0  0  0
   26.8080   20.2500   16.5940 C   0  0  0  0  0  0  0  0  0  0  0  0
   27.0710   21.1650   17.3700 O   0  0  0  0  0  0  0  0  0  0  0  0
   26.4700   20.5060   15.2890 N   0  0  0  0  0  0  0  0  0  0  0  0
   26.2810   19.5990   14.2710 C   0  0  0  0  0  0  0  0  0  0  0  0
   26.1280   19.9900   13.1130 O   0  0  0  0  0  0  0  0  0  0  0  0
   24.2800   17.0720   13.8070 C   0  0  0  0  0  0  0  0  0  0  0  0
   23.5100   17.3990   14.6890 O   0  0  0  0  0  0  0  0  0  0  0  0
   26.2900   16.4310    8.5830 C   0  0  0  0  0  0  0  0  0  0  0  0
   27.4390   16.0360    7.9500 N   0  0  0  0  0  0  0  0  0  0  0  0
   27.9700   14.9280    8.5730 C   0  0  0  0  0  0  0  0  0  0  0  0
   29.1260   14.1930    8.2700 C   0  0  0  0  0  0  0  0  0  0  0  0
   28.6900   10.7390    5.9310 C   0  0  0  0  0  0  0  0  0  0  0  0
   27.3780   10.7220    5.8190 N   0  0  0  0  0  0  0  0  0  0  0  0
   24.8497    9.5640    8.8806 H   0  0  0  0  0  0  0  0  0  0  0  0
   23.8507    9.4948    7.3893 H   0  0  0  0  0  0  0  0  0  0  0  0
   25.5127    8.8135    7.3893 H   0  0  0  0  0  0  0  0  0  0  0  0
   24.9157   11.2762    6.4245 H   0  0  0  0  0  0  0  0  0  0  0  0
   25.2449   11.6813    8.1644 H   0  0  0  0  0  0  0  0  0  0  0  0
   27.8721   11.2658    9.0711 H   0  0  0  0  0  0  0  0  0  0  0  0
   28.8785   11.9173   10.8097 H   0  0  0  0  0  0  0  0  0  0  0  0
   26.8342   13.2524   11.3203 H   0  0  0  0  0  0  0  0  0  0  0  0
   23.5641   14.6940    9.1349 H   0  0  0  0  0  0  0  0  0  0  0  0
   21.5672   14.9081   10.6172 H   0  0  0  0  0  0  0  0  0  0  0  0
   21.7715   16.0250   12.8576 H   0  0  0  0  0  0  0  0  0  0  0  0
   27.0114   16.1733   12.5420 H   0  0  0  0  0  0  0  0  0  0  0  0
   26.6207   17.7500   11.8913 H   0  0  0  0  0  0  0  0  0  0  0  0
   27.4544   17.8043   14.5537 H   0  0  0  0  0  0  0  0  0  0  0  0
   24.9864   18.1837   16.2870 H   0  0  0  0  0  0  0  0  0  0  0  0
   26.1932   16.8598   16.4038 H   0  0  0  0  0  0  0  0  0  0  0  0
   26.6228   18.6897   18.0448 H   0  0  0  0  0  0  0  0  0  0  0  0
   27.9711   18.4838   16.8548 H   0  0  0  0  0  0  0  0  0  0  0  0
   26.3422   21.4975   15.0410 H   0  0  0  0  0  0  0  0  0  0  0  0
   25.6576   17.2859    8.3017 H   0  0  0  0  0  0  0  0  0  0  0  0
   27.8472   16.5008    7.1265 H   0  0  0  0  0  0  0  0  0  0  0  0
   29.7668   14.4651    7.4183 H   0  0  0  0  0  0  0  0  0  0  0  0
   29.3926   10.6428    5.0901 H   0  0  0  0  0  0  0  0  0  0  0  0
  1  2  1  0
  2  3  1  0
  3  4  2  0
  4  5  1  0
  5  6  1  0
  6  7  2  0
  6  8  2  0
  6  9  1  0
  9 10  1  0
 10 11  2  0
 11 12  1  0
 12 13  2  0
 13 14  1  0
 14 15  1  0
 15 16  2  0
 16 17  1  0
 17 18  2  0
 18 19  1  0
 19 20  2  0
 20 21  1  0
 21 22  1  0
 22 23  1  0
 23 24  1  0
 24 25  1  0
 25 26  1  0
 26 27  2  0
 26 28  1  0
 28 29  1  0
 29 30  2  0
 22 31  1  0
 31 32  2  0
 14 33  2  0
 33 34  1  0
 34 35  1  0
 35 36  2  0
  5 37  1  0
 37 38  2  0
 38  3  1  0
 36 10  1  0
 35 13  1  0
 20 15  1  0
 29 23  1  0
 31 19  1  0
  1 39  1  0
  1 40  1  0
  1 41  1  0
  2 42  1  0
  2 43  1  0
  4 44  1  0
 11 45  1  0
 12 46  1  0
 16 47  1  0
 17 48  1  0
 18 49  1  0
 21 50  1  0
 21 51  1  0
 23 52  1  1
 24 53  1  0
 24 54  1  0
 25 55  1  0
 25 56  1  0
 28 57  1  0
 33 58  1  0
 34 59  1  0
 36 60  1  0
 37 61  1  0
M  END
>  <meeko>  (113) 
{"is_sidechain": [true], "free_energy": -14.24, "intermolecular_energy": 0.0, "internal_energy": -14.24, "cluster_size": 12, "cluster_id": 1, "rank_in_cluster": 1}

>  <_RMSD_MCS_to_ref>  (113) 
1.324132021782991

$$$$
ligand
     RDKit          3D

 60 65  0  0  0  0  0  0  0  0999 V2000
   24.8710    9.6160    7.7820 C   0  0  0  0  0  0  0  0  0  0  0  0
   25.4240   10.9650    7.3490 C   0  0  0  0  0  0  0  0  0  0  0  0
   26.8890   10.9130    7.0880 C   0  0  0  0  0  0  0  0  0  0  0  0
   27.9360   11.0480    7.9780 C   0  0  0  0  0  0  0  0  0  0  0  0
   29.0530   10.8800    7.2110 N   0  0  0  0  0  0  0  0  0  0  0  0
   30.6380   11.1730    7.7000 S   0  0  0  0  0  6  0  0  0  0  0  0
   31.0940    9.9090    8.2480 O   0  0  0  0  0  0  0  0  0  0  0  0
   31.2770   11.7730    6.5430 O   0  0  0  0  0  0  0  0  0  0  0  0
   30.5400   12.2760    8.8950 O   0  0  0  0  0  0  0  0  0  0  0  0
   29.4480   13.0940    9.0630 C   0  0  0  0  0  0  0  0  0  0  0  0
   28.6420   12.7710   10.1580 C   0  0  0  0  0  0  0  0  0  0  0  0
   27.4930   13.5130   10.4600 C   0  0  0  0  0  0  0  0  0  0  0  0
   27.1480   14.6040    9.6380 C   0  0  0  0  0  0  0  0  0  0  0  0
   26.1030   15.5820    9.5970 C   0  0  0  0  0  0  0  0  0  0  0  0
   24.9510   15.7130   10.4850 C   0  0  0  0  0  0  0  0  0  0  0  0
   23.7320   15.0730   10.1910 C   0  0  0  0  0  0  0  0  0  0  0  0
   22.6220   15.1730   11.0520 C   0  0  0  0  0  0  0  0  0  0  0  0
   22.7030   15.9190   12.2260 C   0  0  0  0  0  0  0  0  0  0  0  0
   23.9010   16.5560   12.4900 C   0  0  0  0  0  0  0  0  0  0  0  0
   25.0090   16.4730   11.6460 C   0  0  0  0  0  0  0  0  0  0  0  0
   26.1400   17.2620   12.2220 C   0  0  0  0  0  0  0  0  0  0  0  0
   25.5500   17.8380   13.4260 N   0  0  0  0  0  0  0  0  0  0  0  0
   26.3320   18.4870   14.4700 C   0  0  2  0  0  0  0  0  0  0  0  0
   26.0440   17.9170   15.8560 C   0  0  0  0  0  0  0  0  0  0  0  0
   26.9550   18.5810   16.8760 C   0  0  0  0  0  0  0  0  0  0  0  0
   26.8050   20.0830   16.8440 C   0  0  0  0  0  0  0  0  0  0  0  0
   26.8900   20.7730   17.8570 O   0  0  0  0  0  0  0  0  0  0  0  0
   26.5890   20.6530   15.6160 N   0  0  0  0  0  0  0  0  0  0  0  0
   26.1100   20.0100   14.4980 C   0  0  0  0  0  0  0  0  0  0  0  0
   25.5510   20.6490   13.6090 O   0  0  0  0  0  0  0  0  0  0  0  0
   24.2590   17.3860   13.6440 C   0  0  0  0  0  0  0  0  0  0  0  0
   23.5360   17.6100   14.5960 O   0  0  0  0  0  0  0  0  0  0  0  0
   26.3020   16.4520    8.5920 N   0  0  0  0  0  0  0  0  0  0  0  0
   27.4100   16.0080    7.9800 N   0  0  0  0  0  0  0  0  0  0  0  0
   27.9750   14.9090    8.5650 C   0  0  0  0  0  0  0  0  0  0  0  0
   29.1280   14.1810    8.2410 C   0  0  0  0  0  0  0  0  0  0  0  0
   28.6810   10.7380    5.9110 C   0  0  0  0  0  0  0  0  0  0  0  0
   27.3690   10.7280    5.8060 N   0  0  0  0  0  0  0  0  0  0  0  0
   24.8497    9.5640    8.8806 H   0  0  0  0  0  0  0  0  0  0  0  0
   23.8507    9.4948    7.3893 H   0  0  0  0  0  0  0  0  0  0  0  0
   25.5127    8.8135    7.3893 H   0  0  0  0  0  0  0  0  0  0  0  0
   24.9108   11.2796    6.4283 H   0  0  0  0  0  0  0  0  0  0  0  0
   25.2512   11.6799    8.1669 H   0  0  0  0  0  0  0  0  0  0  0  0
   27.8824   11.2458    9.0587 H   0  0  0  0  0  0  0  0  0  0  0  0
   28.9153   11.9171   10.7954 H   0  0  0  0  0  0  0  0  0  0  0  0
   26.8691   13.2478   11.3263 H   0  0  0  0  0  0  0  0  0  0  0  0
   23.6445   14.4814    9.2678 H   0  0  0  0  0  0  0  0  0  0  0  0
   21.6842   14.6584   10.7958 H   0  0  0  0  0  0  0  0  0  0  0  0
   21.8487   15.9978   12.9145 H   0  0  0  0  0  0  0  0  0  0  0  0
   26.9915   16.6113   12.4700 H   0  0  0  0  0  0  0  0  0  0  0  0
   26.5427   18.0162   11.5299 H   0  0  0  0  0  0  0  0  0  0  0  0
   27.3824   18.2812   14.2165 H   0  0  0  0  0  0  0  0  0  0  0  0
   24.9941   18.1104   16.1212 H   0  0  0  0  0  0  0  0  0  0  0  0
   26.2271   16.8324   15.8518 H   0  0  0  0  0  0  0  0  0  0  0  0
   26.6957   18.2156   17.8806 H   0  0  0  0  0  0  0  0  0  0  0  0
   27.9970   18.3291   16.6294 H   0  0  0  0  0  0  0  0  0  0  0  0
   26.8054   21.6556   15.5217 H   0  0  0  0  0  0  0  0  0  0  0  0
   27.8021   16.4572    7.1401 H   0  0  0  0  0  0  0  0  0  0  0  0
   29.7543   14.4520    7.3783 H   0  0  0  0  0  0  0  0  0  0  0  0
   29.3786   10.6446    5.0656 H   0  0  0  0  0  0  0  0  0  0  0  0
  1  2  1  0
  2  3  1  0
  3  4  2  0
  4  5  1  0
  5  6  1  0
  6  7  2  0
  6  8  2  0
  6  9  1  0
  9 10  1  0
 10 11  2  0
 11 12  1  0
 12 13  2  0
 13 14  1  0
 14 15  1  0
 15 16  2  0
 16 17  1  0
 17 18  2  0
 18 19  1  0
 19 20  2  0
 20 21  1  0
 21 22  1  0
 22 23  1  0
 23 24  1  0
 24 25  1  0
 25 26  1  0
 26 27  2  0
 26 28  1  0
 28 29  1  0
 29 30  2  0
 22 31  1  0
 31 32  2  0
 14 33  2  0
 33 34  1  0
 34 35  1  0
 35 36  2  0
  5 37  1  0
 37 38  2  0
 38  3  1  0
 36 10  1  0
 35 13  1  0
 20 15  1  0
 29 23  1  0
 31 19  1  0
  1 39  1  0
  1 40  1  0
  1 41  1  0
  2 42  1  0
  2 43  1  0
  4 44  1  0
 11 45  1  0
 12 46  1  0
 16 47  1  0
 17 48  1  0
 18 49  1  0
 21 50  1  0
 21 51  1  0
 23 52  1  6
 24 53  1  0
 24 54  1  0
 25 55  1  0
 25 56  1  0
 28 57  1  0
 34 58  1  0
 36 59  1  0
 37 60  1  0
M  END
>  <meeko>  (114) 
{"is_sidechain": [true], "free_energy": -14.24, "intermolecular_energy": 0.0, "internal_energy": -14.24, "cluster_size": 13, "cluster_id": 1, "rank_in_cluster": 1}

>  <_RMSD_MCS_to_ref>  (114) 
1.2831470427559477

$$$$
ligand
     RDKit          3D

 60 65  0  0  0  0  0  0  0  0999 V2000
   24.8540    9.4020    7.6050 C   0  0  0  0  0  0  0  0  0  0  0  0
   25.5230   10.7550    7.4270 C   0  0  0  0  0  0  0  0  0  0  0  0
   25.1450   11.4410    6.1600 C   0  0  0  0  0  0  0  0  0  0  0  0
   24.5770   12.6880    5.9790 C   0  0  0  0  0  0  0  0  0  0  0  0
   24.4570   12.8120    4.6260 N   0  0  0  0  0  0  0  0  0  0  0  0
   23.9540   14.1870    3.7890 S   0  0  0  0  0  6  0  0  0  0  0  0
   22.5070   14.1460    3.9060 O   0  0  0  0  0  0  0  0  0  0  0  0
   24.5900   14.1090    2.4850 O   0  0  0  0  0  0  0  0  0  0  0  0
   24.4700   15.5280    4.5570 O   0  0  0  0  0  0  0  0  0  0  0  0
   25.3920   15.3910    5.5560 C   0  0  0  0  0  0  0  0  0  0  0  0
   26.6860   15.0710    5.2230 C   0  0  0  0  0  0  0  0  0  0  0  0
   27.6340   14.9960    6.2240 C   0  0  0  0  0  0  0  0  0  0  0  0
   28.8920   14.6720    5.8690 N   0  0  0  0  0  0  0  0  0  0  0  0
   29.8110   14.6130    6.8550 C   0  0  0  0  0  0  0  0  0  0  0  0
   29.4890   14.8720    8.1680 C   0  0  0  0  0  0  0  0  0  0  0  0
   28.2340   15.1960    8.5430 N   0  0  0  0  0  0  0  0  0  0  0  0
   27.2830   15.2600    7.5690 C   0  0  0  0  0  0  0  0  0  0  0  0
   25.9380   15.6010    7.7950 C   0  0  0  0  0  0  0  0  0  0  0  0
   25.3920   15.9390    9.1300 C   0  0  0  0  0  0  0  0  0  0  0  0
   24.1420   15.4400    9.5810 C   0  0  0  0  0  0  0  0  0  0  0  0
   23.6130   15.7940   10.8290 C   0  0  0  0  0  0  0  0  0  0  0  0
   24.3500   16.6600   11.6100 C   0  0  0  0  0  0  0  0  0  0  0  0
   25.5780   17.1690   11.2050 C   0  0  0  0  0  0  0  0  0  0  0  0
   26.1080   16.8170    9.9760 C   0  0  0  0  0  0  0  0  0  0  0  0
   26.1330   18.0700   12.2540 C   0  0  0  0  0  0  0  0  0  0  0  0
   25.0540   18.1170   13.2320 N   0  0  0  0  0  0  0  0  0  0  0  0
   25.2420   18.7390   14.5370 C   0  0  1  0  0  0  0  0  0  0  0  0
   26.2740   18.0290   15.4120 C   0  0  0  0  0  0  0  0  0  0  0  0
   26.3480   18.7200   16.7650 C   0  0  0  0  0  0  0  0  0  0  0  0
   26.6760   20.1870   16.6130 C   0  0  0  0  0  0  0  0  0  0  0  0
   27.1920   20.8390   17.5170 O   0  0  0  0  0  0  0  0  0  0  0  0
   26.2940   20.7860   15.4390 N   0  0  0  0  0  0  0  0  0  0  0  0
   25.5870   20.2310   14.3960 C   0  0  0  0  0  0  0  0  0  0  0  0
   25.1830   20.9390   13.4760 O   0  0  0  0  0  0  0  0  0  0  0  0
   24.0380   17.2210   12.9290 C   0  0  0  0  0  0  0  0  0  0  0  0
   23.0690   16.9210   13.5980 O   0  0  0  0  0  0  0  0  0  0  0  0
   25.0020   15.6750    6.8020 N   0  0  0  0  0  0  0  0  0  0  0  0
   25.0140   11.7260    4.0300 C   0  0  0  0  0  0  0  0  0  0  0  0
   25.4010   10.8490    4.9340 N   0  0  0  0  0  0  0  0  0  0  0  0
   24.7464    9.1845    8.6779 H   0  0  0  0  0  0  0  0  0  0  0  0
   23.8606    9.4192    7.1330 H   0  0  0  0  0  0  0  0  0  0  0  0
   25.4708    8.6230    7.1330 H   0  0  0  0  0  0  0  0  0  0  0  0
   25.2361   11.3993    8.2711 H   0  0  0  0  0  0  0  0  0  0  0  0
   26.6079   10.5777    7.3885 H   0  0  0  0  0  0  0  0  0  0  0  0
   24.2873   13.4157    6.7513 H   0  0  0  0  0  0  0  0  0  0  0  0
   26.9622   14.8777    4.1759 H   0  0  0  0  0  0  0  0  0  0  0  0
   30.8487   14.3500    6.6021 H   0  0  0  0  0  0  0  0  0  0  0  0
   30.2771   14.8132    8.9332 H   0  0  0  0  0  0  0  0  0  0  0  0
   23.5733   14.7568    8.9330 H   0  0  0  0  0  0  0  0  0  0  0  0
   22.6467   15.3966   11.1731 H   0  0  0  0  0  0  0  0  0  0  0  0
   27.0818   17.2184    9.6588 H   0  0  0  0  0  0  0  0  0  0  0  0
   27.0501   17.6508   12.6936 H   0  0  0  0  0  0  0  0  0  0  0  0
   26.4231   19.0603   11.8730 H   0  0  0  0  0  0  0  0  0  0  0  0
   24.2770   18.6403   15.0556 H   0  0  0  0  0  0  0  0  0  0  0  0
   25.9771   16.9791   15.5516 H   0  0  0  0  0  0  0  0  0  0  0  0
   27.2592   18.0680   14.9244 H   0  0  0  0  0  0  0  0  0  0  0  0
   25.3770   18.6203   17.2722 H   0  0  0  0  0  0  0  0  0  0  0  0
   27.1451   18.2446   17.3554 H   0  0  0  0  0  0  0  0  0  0  0  0
   26.5700   21.7716   15.3239 H   0  0  0  0  0  0  0  0  0  0  0  0
   25.1264   11.5966    2.9434 H   0  0  0  0  0  0  0  0  0  0  0  0
  1  2  1  0
  2  3  1  0
  3  4  2  0
  4  5  1  0
  5  6  1  0
  6  7  2  0
  6  8  2  0
  6  9  1  0
  9 10  1  0
 10 11  2  0
 11 12  1  0
 12 13  2  0
 13 14  1  0
 14 15  2  0
 15 16  1  0
 16 17  2  0
 17 18  1  0
 18 19  1  0
 19 20  2  0
 20 21  1  0
 21 22  2  0
 22 23  1  0
 23 24  2  0
 23 25  1  0
 25 26  1  0
 26 27  1  0
 27 28  1  0
 28 29  1  0
 29 30  1  0
 30 31  2  0
 30 32  1  0
 32 33  1  0
 33 34  2  0
 26 35  1  0
 35 36  2  0
 18 37  2  0
  5 38  1  0
 38 39  2  0
 39  3  1  0
 37 10  1  0
 17 12  1  0
 24 19  1  0
 33 27  1  0
 35 22  1  0
  1 40  1  0
  1 41  1  0
  1 42  1  0
  2 43  1  0
  2 44  1  0
  4 45  1  0
 11 46  1  0
 14 47  1  0
 15 48  1  0
 20 49  1  0
 21 50  1  0
 24 51  1  0
 25 52  1  0
 25 53  1  0
 27 54  1  1
 28 55  1  0
 28 56  1  0
 29 57  1  0
 29 58  1  0
 32 59  1  0
 38 60  1  0
M  END
>  <meeko>  (115) 
{"is_sidechain": [true], "free_energy": -14.23, "intermolecular_energy": 0.0, "internal_energy": -14.23, "cluster_size": 7, "cluster_id": 1, "rank_in_cluster": 1}

>  <_RMSD_MCS_to_ref>  (115) 
0.530146625420217

$$$$
ligand
     RDKit          3D

 59 64  0  0  0  0  0  0  0  0999 V2000
   24.8540    9.4020    7.6050 C   0  0  0  0  0  0  0  0  0  0  0  0
   25.5230   10.7550    7.4270 C   0  0  0  0  0  0  0  0  0  0  0  0
   25.1670   11.3900    6.1300 C   0  0  0  0  0  0  0  0  0  0  0  0
   24.4190   12.5280    5.8950 C   0  0  0  0  0  0  0  0  0  0  0  0
   24.3850   12.6250    4.5340 N   0  0  0  0  0  0  0  0  0  0  0  0
   23.7050   13.8910    3.6590 S   0  0  0  0  0  6  0  0  0  0  0  0
   24.2750   13.7350    2.3340 O   0  0  0  0  0  0  0  0  0  0  0  0
   22.2710   13.7920    3.8660 O   0  0  0  0  0  0  0  0  0  0  0  0
   24.2710   15.2970    4.2770 O   0  0  0  0  0  0  0  0  0  0  0  0
   25.1550   15.3030    5.3320 C   0  0  0  0  0  0  0  0  0  0  0  0
   24.6730   15.6300    6.6000 C   0  0  0  0  0  0  0  0  0  0  0  0
   25.5450   15.6770    7.6970 C   0  0  0  0  0  0  0  0  0  0  0  0
   25.0670   16.0050    9.0610 C   0  0  0  0  0  0  0  0  0  0  0  0
   23.8810   15.4290    9.5920 C   0  0  0  0  0  0  0  0  0  0  0  0
   23.4270   15.7320   10.8810 C   0  0  0  0  0  0  0  0  0  0  0  0
   24.1720   16.6250   11.6230 C   0  0  0  0  0  0  0  0  0  0  0  0
   25.3330   17.2150   11.1380 C   0  0  0  0  0  0  0  0  0  0  0  0
   25.7900   16.9150    9.8640 C   0  0  0  0  0  0  0  0  0  0  0  0
   25.9200   18.1120   12.1750 C   0  0  0  0  0  0  0  0  0  0  0  0
   24.9270   18.0630   13.2400 N   0  0  0  0  0  0  0  0  0  0  0  0
   25.1980   18.6320   14.5550 C   0  0  1  0  0  0  0  0  0  0  0  0
   26.2750   17.8820   15.3400 C   0  0  0  0  0  0  0  0  0  0  0  0
   26.4330   18.5180   16.7110 C   0  0  0  0  0  0  0  0  0  0  0  0
   26.7590   19.9890   16.6000 C   0  0  0  0  0  0  0  0  0  0  0  0
   27.3280   20.6040   17.4980 O   0  0  0  0  0  0  0  0  0  0  0  0
   26.3130   20.6360   15.4750 N   0  0  0  0  0  0  0  0  0  0  0  0
   25.5450   20.1250   14.4540 C   0  0  0  0  0  0  0  0  0  0  0  0
   25.0920   20.8700   13.5860 O   0  0  0  0  0  0  0  0  0  0  0  0
   23.9400   17.1210   12.9840 C   0  0  0  0  0  0  0  0  0  0  0  0
   23.0500   16.7370   13.7160 O   0  0  0  0  0  0  0  0  0  0  0  0
   26.8770   15.4220    7.6090 N   0  0  0  0  0  0  0  0  0  0  0  0
   27.3380   15.1380    6.3690 C   0  0  0  0  0  0  0  0  0  0  0  0
   28.6470   14.8600    5.9180 C   0  0  0  0  0  0  0  0  0  0  0  0
   28.5500   14.6640    4.5580 C   0  0  0  0  0  0  0  0  0  0  0  0
   27.2610   14.8030    4.1430 O   0  0  0  0  0  0  0  0  0  0  0  0
   26.5210   15.0800    5.2490 C   0  0  0  0  0  0  0  0  0  0  0  0
   25.1450   11.6400    3.9930 C   0  0  0  0  0  0  0  0  0  0  0  0
   25.6100   10.8480    4.9370 N   0  0  0  0  0  0  0  0  0  0  0  0
   24.7464    9.1845    8.6779 H   0  0  0  0  0  0  0  0  0  0  0  0
   23.8606    9.4192    7.1330 H   0  0  0  0  0  0  0  0  0  0  0  0
   25.4708    8.6230    7.1330 H   0  0  0  0  0  0  0  0  0  0  0  0
   25.2053   11.4179    8.2453 H   0  0  0  0  0  0  0  0  0  0  0  0
   26.6117   10.5983    7.4394 H   0  0  0  0  0  0  0  0  0  0  0  0
   23.9578   13.2000    6.6337 H   0  0  0  0  0  0  0  0  0  0  0  0
   23.6047   15.8518    6.7395 H   0  0  0  0  0  0  0  0  0  0  0  0
   23.3042   14.7259    8.9731 H   0  0  0  0  0  0  0  0  0  0  0  0
   22.5119   15.2758   11.2865 H   0  0  0  0  0  0  0  0  0  0  0  0
   26.7092   17.3823    9.4811 H   0  0  0  0  0  0  0  0  0  0  0  0
   26.8929   17.7337   12.5220 H   0  0  0  0  0  0  0  0  0  0  0  0
   26.1184   19.1304   11.8096 H   0  0  0  0  0  0  0  0  0  0  0  0
   24.2641   18.5174   15.1249 H   0  0  0  0  0  0  0  0  0  0  0  0
   25.9789   16.8289   15.4556 H   0  0  0  0  0  0  0  0  0  0  0  0
   27.2303   17.9352   14.7973 H   0  0  0  0  0  0  0  0  0  0  0  0
   25.4934   18.4006   17.2708 H   0  0  0  0  0  0  0  0  0  0  0  0
   27.2621   18.0172   17.2323 H   0  0  0  0  0  0  0  0  0  0  0  0
   26.5865   21.6248   15.3837 H   0  0  0  0  0  0  0  0  0  0  0  0
   29.5600   14.8100    6.5295 H   0  0  0  0  0  0  0  0  0  0  0  0
   29.3977   14.4276    3.8980 H   0  0  0  0  0  0  0  0  0  0  0  0
   25.3446   11.5198    2.9180 H   0  0  0  0  0  0  0  0  0  0  0  0
  1  2  1  0
  2  3  1  0
  3  4  2  0
  4  5  1  0
  5  6  1  0
  6  7  2  0
  6  8  2  0
  6  9  1  0
  9 10  1  0
 10 11  2  0
 11 12  1  0
 12 13  1  0
 13 14  2  0
 14 15  1  0
 15 16  2  0
 16 17  1  0
 17 18  2  0
 17 19  1  0
 19 20  1  0
 20 21  1  0
 21 22  1  0
 22 23  1  0
 23 24  1  0
 24 25  2  0
 24 26  1  0
 26 27  1  0
 27 28  2  0
 20 29  1  0
 29 30  2  0
 12 31  2  0
 31 32  1  0
 32 33  1  0
 33 34  2  0
 34 35  1  0
 35 36  1  0
  5 37  1  0
 37 38  2  0
 38  3  1  0
 36 10  1  0
 18 13  1  0
 27 21  1  0
 36 32  2  0
 29 16  1  0
  1 39  1  0
  1 40  1  0
  1 41  1  0
  2 42  1  0
  2 43  1  0
  4 44  1  0
 11 45  1  0
 14 46  1  0
 15 47  1  0
 18 48  1  0
 19 49  1  0
 19 50  1  0
 21 51  1  1
 22 52  1  0
 22 53  1  0
 23 54  1  0
 23 55  1  0
 26 56  1  0
 33 57  1  0
 34 58  1  0
 37 59  1  0
M  END
>  <meeko>  (116) 
{"is_sidechain": [true], "free_energy": -14.21, "intermolecular_energy": 0.0, "internal_energy": -14.21, "cluster_size": 17, "cluster_id": 1, "rank_in_cluster": 1}

>  <_RMSD_MCS_to_ref>  (116) 
0.42753570351232345

$$$$
ligand
     RDKit          3D

 59 64  0  0  0  0  0  0  0  0999 V2000
   24.8540    9.4020    7.6050 C   0  0  0  0  0  0  0  0  0  0  0  0
   25.5230   10.7550    7.4270 C   0  0  0  0  0  0  0  0  0  0  0  0
   25.1930   11.3780    6.1160 C   0  0  0  0  0  0  0  0  0  0  0  0
   24.4360   12.5030    5.8540 C   0  0  0  0  0  0  0  0  0  0  0  0
   24.4260   12.5910    4.4900 N   0  0  0  0  0  0  0  0  0  0  0  0
   23.8920   13.9210    3.5940 S   0  0  0  0  0  6  0  0  0  0  0  0
   22.4990   14.0590    3.9780 O   0  0  0  0  0  0  0  0  0  0  0  0
   24.3020   13.6090    2.2370 O   0  0  0  0  0  0  0  0  0  0  0  0
   24.7540   15.1810    4.1640 O   0  0  0  0  0  0  0  0  0  0  0  0
   25.1550   15.2020    5.4260 C   0  0  0  0  0  0  0  0  0  0  0  0
   24.4410   15.5970    6.4550 N   0  0  0  0  0  0  0  0  0  0  0  0
   25.2560   15.4390    7.5570 C   0  0  0  0  0  0  0  0  0  0  0  0
   24.8140   15.7750    8.8980 C   0  0  0  0  0  0  0  0  0  0  0  0
   23.6130   15.2510    9.4320 C   0  0  0  0  0  0  0  0  0  0  0  0
   23.1940   15.5870   10.7240 C   0  0  0  0  0  0  0  0  0  0  0  0
   23.9870   16.4580   11.4440 C   0  0  0  0  0  0  0  0  0  0  0  0
   25.1640   17.0000   10.9340 C   0  0  0  0  0  0  0  0  0  0  0  0
   25.5890   16.6680    9.6580 C   0  0  0  0  0  0  0  0  0  0  0  0
   25.7960   17.8910   11.9490 C   0  0  0  0  0  0  0  0  0  0  0  0
   24.8200   17.8890   13.0290 N   0  0  0  0  0  0  0  0  0  0  0  0
   25.1300   18.4670   14.3310 C   0  0  1  0  0  0  0  0  0  0  0  0
   26.3170   17.8070   15.0320 C   0  0  0  0  0  0  0  0  0  0  0  0
   26.5130   18.4440   16.3990 C   0  0  0  0  0  0  0  0  0  0  0  0
   26.7050   19.9380   16.2860 C   0  0  0  0  0  0  0  0  0  0  0  0
   27.2800   20.5910   17.1510 O   0  0  0  0  0  0  0  0  0  0  0  0
   26.1290   20.5540   15.2030 N   0  0  0  0  0  0  0  0  0  0  0  0
   25.3400   19.9860   14.2270 C   0  0  0  0  0  0  0  0  0  0  0  0
   24.7700   20.6970   13.4000 O   0  0  0  0  0  0  0  0  0  0  0  0
   23.7960   16.9800   12.8000 C   0  0  0  0  0  0  0  0  0  0  0  0
   22.9040   16.6380   13.5520 O   0  0  0  0  0  0  0  0  0  0  0  0
   26.4940   14.9780    7.1690 C   0  0  0  0  0  0  0  0  0  0  0  0
   27.7400   14.6790    7.8100 C   0  0  0  0  0  0  0  0  0  0  0  0
   28.7660   14.2280    7.1390 N   0  0  0  0  0  0  0  0  0  0  0  0
   28.6260   14.0550    5.7730 C   0  0  0  0  0  0  0  0  0  0  0  0
   27.5000   14.3340    5.0950 C   0  0  0  0  0  0  0  0  0  0  0  0
   26.4130   14.8100    5.8060 N   0  0  0  0  0  0  0  0  0  0  0  0
   25.2140   11.6110    3.9780 C   0  0  0  0  0  0  0  0  0  0  0  0
   25.6790   10.8420    4.9400 N   0  0  0  0  0  0  0  0  0  0  0  0
   24.7464    9.1845    8.6779 H   0  0  0  0  0  0  0  0  0  0  0  0
   23.8606    9.4192    7.1330 H   0  0  0  0  0  0  0  0  0  0  0  0
   25.4708    8.6230    7.1330 H   0  0  0  0  0  0  0  0  0  0  0  0
   25.1868   11.4249    8.2321 H   0  0  0  0  0  0  0  0  0  0  0  0
   26.6115   10.6005    7.4627 H   0  0  0  0  0  0  0  0  0  0  0  0
   23.9516   13.1749    6.5778 H   0  0  0  0  0  0  0  0  0  0  0  0
   23.0003   14.5701    8.8230 H   0  0  0  0  0  0  0  0  0  0  0  0
   22.2681   15.1730   11.1498 H   0  0  0  0  0  0  0  0  0  0  0  0
   26.5157   17.0952    9.2472 H   0  0  0  0  0  0  0  0  0  0  0  0
   26.7615   17.4858   12.2862 H   0  0  0  0  0  0  0  0  0  0  0  0
   26.0214   18.8974   11.5663 H   0  0  0  0  0  0  0  0  0  0  0  0
   24.2509   18.2662   14.9610 H   0  0  0  0  0  0  0  0  0  0  0  0
   26.1204   16.7315   15.1529 H   0  0  0  0  0  0  0  0  0  0  0  0
   27.2253   17.9466   14.4275 H   0  0  0  0  0  0  0  0  0  0  0  0
   25.6267   18.2425   17.0186 H   0  0  0  0  0  0  0  0  0  0  0  0
   27.4147   18.0118   16.8573 H   0  0  0  0  0  0  0  0  0  0  0  0
   26.3086   21.5638   15.1086 H   0  0  0  0  0  0  0  0  0  0  0  0
   27.8351   14.8332    8.8950 H   0  0  0  0  0  0  0  0  0  0  0  0
   29.4870   13.6663    5.2094 H   0  0  0  0  0  0  0  0  0  0  0  0
   27.4442   14.1881    4.0061 H   0  0  0  0  0  0  0  0  0  0  0  0
   25.4333   11.4781    2.9083 H   0  0  0  0  0  0  0  0  0  0  0  0
  1  2  1  0
  2  3  1  0
  3  4  2  0
  4  5  1  0
  5  6  1  0
  6  7  2  0
  6  8  2  0
  6  9  1  0
  9 10  1  0
 10 11  2  0
 11 12  1  0
 12 13  1  0
 13 14  2  0
 14 15  1  0
 15 16  2  0
 16 17  1  0
 17 18  2  0
 17 19  1  0
 19 20  1  0
 20 21  1  0
 21 22  1  0
 22 23  1  0
 23 24  1  0
 24 25  2  0
 24 26  1  0
 26 27  1  0
 27 28  2  0
 20 29  1  0
 29 30  2  0
 12 31  2  0
 31 32  1  0
 32 33  2  0
 33 34  1  0
 34 35  2  0
 35 36  1  0
  5 37  1  0
 37 38  2  0
 38  3  1  0
 36 10  1  0
 18 13  1  0
 27 21  1  0
 36 31  1  0
 29 16  1  0
  1 39  1  0
  1 40  1  0
  1 41  1  0
  2 42  1  0
  2 43  1  0
  4 44  1  0
 14 45  1  0
 15 46  1  0
 18 47  1  0
 19 48  1  0
 19 49  1  0
 21 50  1  1
 22 51  1  0
 22 52  1  0
 23 53  1  0
 23 54  1  0
 26 55  1  0
 32 56  1  0
 34 57  1  0
 35 58  1  0
 37 59  1  0
M  END
>  <meeko>  (117) 
{"is_sidechain": [true], "free_energy": -14.21, "intermolecular_energy": 0.0, "internal_energy": -14.21, "cluster_size": 18, "cluster_id": 1, "rank_in_cluster": 1}

>  <_RMSD_MCS_to_ref>  (117) 
0.4345902284528106

$$$$
ligand
     RDKit          3D

 58 62  0  0  0  0  0  0  0  0999 V2000
   24.8540    9.4020    7.6050 C   0  0  0  0  0  0  0  0  0  0  0  0
   25.5230   10.7550    7.4270 C   0  0  0  0  0  0  0  0  0  0  0  0
   26.9310   10.6260    6.9610 C   0  0  0  0  0  0  0  0  0  0  0  0
   28.0870   10.5780    7.7120 C   0  0  0  0  0  0  0  0  0  0  0  0
   29.0840   10.4630    6.7890 N   0  0  0  0  0  0  0  0  0  0  0  0
   30.7430   10.5670    7.0820 S   0  0  0  0  0  6  0  0  0  0  0  0
   31.0100    9.6170    8.1470 O   0  0  0  0  0  0  0  0  0  0  0  0
   31.3400   10.3970    5.7690 O   0  0  0  0  0  0  0  0  0  0  0  0
   31.0990   12.0770    7.5990 O   0  0  0  0  0  0  0  0  0  0  0  0
   30.3170   13.1510    7.2680 C   0  0  0  0  0  0  0  0  0  0  0  0
   30.7270   13.9070    6.1700 C   0  0  0  0  0  0  0  0  0  0  0  0
   29.9720   15.0050    5.7560 C   0  0  0  0  0  0  0  0  0  0  0  0
   28.8080   15.3480    6.4430 C   0  0  0  0  0  0  0  0  0  0  0  0
   28.4140   14.6060    7.5580 C   0  0  0  0  0  0  0  0  0  0  0  0
   27.1970   14.9130    8.2400 C   0  0  0  0  0  0  0  0  0  0  0  0
   26.1490   15.0730    8.8030 C   0  0  0  0  0  0  0  0  0  0  0  0
   24.9540   15.3020    9.5480 C   0  0  0  0  0  0  0  0  0  0  0  0
   23.7330   14.7610    9.1200 C   0  0  0  0  0  0  0  0  0  0  0  0
   22.5490   14.9700    9.8560 C   0  0  0  0  0  0  0  0  0  0  0  0
   22.5650   15.7220   11.0340 C   0  0  0  0  0  0  0  0  0  0  0  0
   23.7810   16.2480   11.4310 C   0  0  0  0  0  0  0  0  0  0  0  0
   24.9480   16.0480   10.7130 C   0  0  0  0  0  0  0  0  0  0  0  0
   26.0230   16.7380   11.4380 C   0  0  0  0  0  0  0  0  0  0  0  0
   27.1980   16.7330   11.1280 O   0  0  0  0  0  0  0  0  0  0  0  0
   25.4410   17.3500   12.5180 N   0  0  0  0  0  0  0  0  0  0  0  0
   26.1660   18.0270   13.5820 C   0  0  2  0  0  0  0  0  0  0  0  0
   25.8130   17.5490   14.9890 C   0  0  0  0  0  0  0  0  0  0  0  0
   26.6730   18.2930   16.0000 C   0  0  0  0  0  0  0  0  0  0  0  0
   26.5140   19.7890   15.8600 C   0  0  0  0  0  0  0  0  0  0  0  0
   26.6440   20.5550   16.8100 O   0  0  0  0  0  0  0  0  0  0  0  0
   26.2640   20.2670   14.5970 N   0  0  0  0  0  0  0  0  0  0  0  0
   25.9400   19.5380   13.4750 C   0  0  0  0  0  0  0  0  0  0  0  0
   25.5440   20.1040   12.4570 O   0  0  0  0  0  0  0  0  0  0  0  0
   24.1080   17.0580   12.6010 C   0  0  0  0  0  0  0  0  0  0  0  0
   23.3070   17.3840   13.4550 O   0  0  0  0  0  0  0  0  0  0  0  0
   29.1820   13.5200    7.9880 C   0  0  0  0  0  0  0  0  0  0  0  0
   28.5420   10.4670    5.5440 C   0  0  0  0  0  0  0  0  0  0  0  0
   27.2280   10.5530    5.6130 N   0  0  0  0  0  0  0  0  0  0  0  0
   24.7464    9.1845    8.6779 H   0  0  0  0  0  0  0  0  0  0  0  0
   23.8606    9.4192    7.1330 H   0  0  0  0  0  0  0  0  0  0  0  0
   25.4708    8.6230    7.1330 H   0  0  0  0  0  0  0  0  0  0  0  0
   24.9557   11.3365    6.6853 H   0  0  0  0  0  0  0  0  0  0  0  0
   25.5344   11.2588    8.4048 H   0  0  0  0  0  0  0  0  0  0  0  0
   28.1828   10.6224    8.8069 H   0  0  0  0  0  0  0  0  0  0  0  0
   31.6465   13.6374    5.6298 H   0  0  0  0  0  0  0  0  0  0  0  0
   30.2947   15.5994    4.8885 H   0  0  0  0  0  0  0  0  0  0  0  0
   28.2013   16.2018    6.1070 H   0  0  0  0  0  0  0  0  0  0  0  0
   23.6987   14.1647    8.1963 H   0  0  0  0  0  0  0  0  0  0  0  0
   21.6028   14.5368    9.4995 H   0  0  0  0  0  0  0  0  0  0  0  0
   21.6494   15.8884   11.6205 H   0  0  0  0  0  0  0  0  0  0  0  0
   27.2269   17.7751   13.4370 H   0  0  0  0  0  0  0  0  0  0  0  0
   24.7506   17.7507   15.1905 H   0  0  0  0  0  0  0  0  0  0  0  0
   25.9990   16.4679   15.0698 H   0  0  0  0  0  0  0  0  0  0  0  0
   26.3724   17.9941   17.0150 H   0  0  0  0  0  0  0  0  0  0  0  0
   27.7266   18.0368   15.8150 H   0  0  0  0  0  0  0  0  0  0  0  0
   26.3260   21.2879   14.4753 H   0  0  0  0  0  0  0  0  0  0  0  0
   28.8923   12.9599    8.8893 H   0  0  0  0  0  0  0  0  0  0  0  0
   29.1183   10.4069    4.6090 H   0  0  0  0  0  0  0  0  0  0  0  0
  1  2  1  0
  2  3  1  0
  3  4  2  0
  4  5  1  0
  5  6  1  0
  6  7  2  0
  6  8  2  0
  6  9  1  0
  9 10  1  0
 10 11  2  0
 11 12  1  0
 12 13  2  0
 13 14  1  0
 14 15  1  0
 15 16  3  0
 16 17  1  0
 17 18  2  0
 18 19  1  0
 19 20  2  0
 20 21  1  0
 21 22  2  0
 22 23  1  0
 23 24  2  0
 23 25  1  0
 25 26  1  0
 26 27  1  0
 27 28  1  0
 28 29  1  0
 29 30  2  0
 29 31  1  0
 31 32  1  0
 32 33  2  0
 25 34  1  0
 34 35  2  0
 14 36  2  0
  5 37  1  0
 37 38  2  0
 38  3  1  0
 36 10  1  0
 22 17  1  0
 32 26  1  0
 34 21  1  0
  1 39  1  0
  1 40  1  0
  1 41  1  0
  2 42  1  0
  2 43  1  0
  4 44  1  0
 11 45  1  0
 12 46  1  0
 13 47  1  0
 18 48  1  0
 19 49  1  0
 20 50  1  0
 26 51  1  6
 27 52  1  0
 27 53  1  0
 28 54  1  0
 28 55  1  0
 31 56  1  0
 36 57  1  0
 37 58  1  0
M  END
>  <meeko>  (118) 
{"is_sidechain": [true], "free_energy": -14.2, "intermolecular_energy": 0.0, "internal_energy": -14.2, "cluster_size": 20, "cluster_id": 1, "rank_in_cluster": 1}

>  <_RMSD_MCS_to_ref>  (118) 
1.1588410877539101

$$$$
ligand
     RDKit          3D

 62 67  0  0  0  0  0  0  0  0999 V2000
   24.8710    9.6160    7.7820 C   0  0  0  0  0  0  0  0  0  0  0  0
   25.4240   10.9650    7.3490 C   0  0  0  0  0  0  0  0  0  0  0  0
   26.8710   11.1100    7.6640 C   0  0  0  0  0  0  0  0  0  0  0  0
   27.4790   11.9710    8.5580 C   0  0  0  0  0  0  0  0  0  0  0  0
   28.8080   11.6750    8.4580 N   0  0  0  0  0  0  0  0  0  0  0  0
   30.0760   12.5850    9.0920 S   0  0  0  0  0  6  0  0  0  0  0  0
   31.2260   11.6970    9.1100 O   0  0  0  0  0  0  0  0  0  0  0  0
   29.5330   13.1030   10.3370 O   0  0  0  0  0  0  0  0  0  0  0  0
   30.3300   13.8650    8.1020 O   0  0  0  0  0  0  0  0  0  0  0  0
   29.6820   13.8970    6.8890 C   0  0  0  0  0  0  0  0  0  0  0  0
   30.4120   13.4840    5.7710 C   0  0  0  0  0  0  0  0  0  0  0  0
   29.8060   13.4870    4.5210 C   0  0  0  0  0  0  0  0  0  0  0  0
   28.4840   13.9120    4.3980 C   0  0  0  0  0  0  0  0  0  0  0  0
   27.7650   14.3490    5.5260 C   0  0  0  0  0  0  0  0  0  0  0  0
   26.4430   14.7860    5.4230 C   0  0  0  0  0  0  0  0  0  0  0  0
   25.7670   15.2220    6.5570 C   0  0  0  0  0  0  0  0  0  0  0  0
   26.4330   15.2200    7.7770 C   0  0  0  0  0  0  0  0  0  0  0  0
   25.7980   15.6870    9.0190 C   0  0  0  0  0  0  0  0  0  0  0  0
   24.4750   15.3030    9.3600 C   0  0  0  0  0  0  0  0  0  0  0  0
   23.8690   15.7270   10.5480 C   0  0  0  0  0  0  0  0  0  0  0  0
   24.6130   16.5320   11.3840 C   0  0  0  0  0  0  0  0  0  0  0  0
   25.9100   16.9330   11.0820 C   0  0  0  0  0  0  0  0  0  0  0  0
   26.5100   16.5220    9.9040 C   0  0  0  0  0  0  0  0  0  0  0  0
   26.4510   17.7880   12.1760 C   0  0  0  0  0  0  0  0  0  0  0  0
   25.3840   17.7450   13.1680 N   0  0  0  0  0  0  0  0  0  0  0  0
   25.4140   18.5980   14.3490 C   0  0  2  0  0  0  0  0  0  0  0  0
   26.0340   19.9720   14.0970 C   0  0  0  0  0  0  0  0  0  0  0  0
   25.9640   20.7970   15.3710 C   0  0  0  0  0  0  0  0  0  0  0  0
   26.6460   20.0910   16.5190 C   0  0  0  0  0  0  0  0  0  0  0  0
   27.0870   20.6980   17.4920 O   0  0  0  0  0  0  0  0  0  0  0  0
   26.6790   18.7200   16.4680 N   0  0  0  0  0  0  0  0  0  0  0  0
   26.1160   17.8950   15.5210 C   0  0  0  0  0  0  0  0  0  0  0  0
   26.1030   16.6760   15.6900 O   0  0  0  0  0  0  0  0  0  0  0  0
   24.2570   17.0940   12.6920 C   0  0  0  0  0  0  0  0  0  0  0  0
   23.1650   16.9860   13.2150 O   0  0  0  0  0  0  0  0  0  0  0  0
   27.7200   14.8000    7.8990 N   0  0  0  0  0  0  0  0  0  0  0  0
   28.3690   14.3600    6.8000 C   0  0  0  0  0  0  0  0  0  0  0  0
   28.9810   10.7370    7.4910 C   0  0  0  0  0  0  0  0  0  0  0  0
   27.8190   10.3390    7.0130 N   0  0  0  0  0  0  0  0  0  0  0  0
   24.8497    9.5640    8.8806 H   0  0  0  0  0  0  0  0  0  0  0  0
   23.8507    9.4948    7.3893 H   0  0  0  0  0  0  0  0  0  0  0  0
   25.5127    8.8135    7.3893 H   0  0  0  0  0  0  0  0  0  0  0  0
   25.2861   11.0717    6.2629 H   0  0  0  0  0  0  0  0  0  0  0  0
   24.8796   11.7448    7.9018 H   0  0  0  0  0  0  0  0  0  0  0  0
   27.0011   12.7231    9.2029 H   0  0  0  0  0  0  0  0  0  0  0  0
   31.4573   13.1594    5.8800 H   0  0  0  0  0  0  0  0  0  0  0  0
   30.3658   13.1561    3.6338 H   0  0  0  0  0  0  0  0  0  0  0  0
   27.9988   13.9057    3.4108 H   0  0  0  0  0  0  0  0  0  0  0  0
   25.9371   14.7853    4.4462 H   0  0  0  0  0  0  0  0  0  0  0  0
   24.7232   15.5626    6.4899 H   0  0  0  0  0  0  0  0  0  0  0  0
   23.9112   14.6552    8.6726 H   0  0  0  0  0  0  0  0  0  0  0  0
   22.8413   15.4302   10.8042 H   0  0  0  0  0  0  0  0  0  0  0  0
   27.5333   16.8441    9.6607 H   0  0  0  0  0  0  0  0  0  0  0  0
   27.3860   17.3723   12.5798 H   0  0  0  0  0  0  0  0  0  0  0  0
   26.7057   18.8073   11.8503 H   0  0  0  0  0  0  0  0  0  0  0  0
   24.3618   18.7779   14.6146 H   0  0  0  0  0  0  0  0  0  0  0  0
   27.0848   19.8510   13.7951 H   0  0  0  0  0  0  0  0  0  0  0  0
   25.4807   20.4841   13.2960 H   0  0  0  0  0  0  0  0  0  0  0  0
   26.4595   21.7640   15.1996 H   0  0  0  0  0  0  0  0  0  0  0  0
   24.9056   20.9436   15.6325 H   0  0  0  0  0  0  0  0  0  0  0  0
   27.1871   18.2512   17.2315 H   0  0  0  0  0  0  0  0  0  0  0  0
   29.9578   10.3608    7.1529 H   0  0  0  0  0  0  0  0  0  0  0  0
  1  2  1  0
  2  3  1  0
  3  4  2  0
  4  5  1  0
  5  6  1  0
  6  7  2  0
  6  8  2  0
  6  9  1  0
  9 10  1  0
 10 11  2  0
 11 12  1  0
 12 13  2  0
 13 14  1  0
 14 15  2  0
 15 16  1  0
 16 17  2  0
 17 18  1  0
 18 19  2  0
 19 20  1  0
 20 21  2  0
 21 22  1  0
 22 23  2  0
 22 24  1  0
 24 25  1  0
 25 26  1  0
 26 27  1  0
 27 28  1  0
 28 29  1  0
 29 30  2  0
 29 31  1  0
 31 32  1  0
 32 33  2  0
 25 34  1  0
 34 35  2  0
 17 36  1  0
 36 37  2  0
  5 38  1  0
 38 39  2  0
 39  3  1  0
 37 10  1  0
 37 14  1  0
 23 18  1  0
 32 26  1  0
 34 21  1  0
  1 40  1  0
  1 41  1  0
  1 42  1  0
  2 43  1  0
  2 44  1  0
  4 45  1  0
 11 46  1  0
 12 47  1  0
 13 48  1  0
 15 49  1  0
 16 50  1  0
 19 51  1  0
 20 52  1  0
 23 53  1  0
 24 54  1  0
 24 55  1  0
 26 56  1  1
 27 57  1  0
 27 58  1  0
 28 59  1  0
 28 60  1  0
 31 61  1  0
 38 62  1  0
M  END
>  <meeko>  (119) 
{"is_sidechain": [true], "free_energy": -14.2, "intermolecular_energy": 0.0, "internal_energy": -14.2, "cluster_size": 17, "cluster_id": 1, "rank_in_cluster": 1}

>  <_RMSD_MCS_to_ref>  (119) 
1.6714961309525895

$$$$
ligand
     RDKit          3D

 59 64  0  0  0  0  0  0  0  0999 V2000
   24.8540    9.4020    7.6050 C   0  0  0  0  0  0  0  0  0  0  0  0
   25.5230   10.7550    7.4270 C   0  0  0  0  0  0  0  0  0  0  0  0
   27.0070   10.6620    7.4970 C   0  0  0  0  0  0  0  0  0  0  0  0
   27.9480   11.6600    7.3450 C   0  0  0  0  0  0  0  0  0  0  0  0
   29.1440   11.0170    7.4840 N   0  0  0  0  0  0  0  0  0  0  0  0
   30.6560   11.7330    7.5160 S   0  0  0  0  0  6  0  0  0  0  0  0
   31.5900   10.7510    6.9960 O   0  0  0  0  0  0  0  0  0  0  0  0
   30.5040   13.0520    6.9300 O   0  0  0  0  0  0  0  0  0  0  0  0
   31.1370   12.0050    9.1500 C   0  0  0  0  0  0  0  0  0  0  0  0
   32.2140   11.3370    9.7150 N   0  0  0  0  0  0  0  0  0  0  0  0
   32.2950   11.7830   10.9470 C   0  0  0  0  0  0  0  0  0  0  0  0
   31.3270   12.7090   11.2070 N   0  0  0  0  0  0  0  0  0  0  0  0
   30.5750   12.8680   10.0690 C   0  0  0  0  0  0  0  0  0  0  0  0
   29.3880   13.8410    9.9890 C   0  0  0  0  0  0  0  0  0  0  0  0
   28.0620   13.6060   10.2390 C   0  0  0  0  0  0  0  0  0  0  0  0
   27.4390   14.8170   10.0220 N   0  0  0  0  0  0  0  0  0  0  0  0
   26.0620   15.1420   10.1370 C   0  0  0  0  0  0  0  0  0  0  0  0
   25.1200   14.6000    9.2390 C   0  0  0  0  0  0  0  0  0  0  0  0
   23.7490   14.9060    9.3450 C   0  0  0  0  0  0  0  0  0  0  0  0
   23.2890   15.7550   10.3470 C   0  0  0  0  0  0  0  0  0  0  0  0
   24.2270   16.2810   11.2140 C   0  0  0  0  0  0  0  0  0  0  0  0
   25.5940   15.9960   11.1340 C   0  0  0  0  0  0  0  0  0  0  0  0
   26.3020   16.7130   12.2430 C   0  0  0  0  0  0  0  0  0  0  0  0
   25.2410   17.4890   12.8700 N   0  0  0  0  0  0  0  0  0  0  0  0
   25.4570   18.1720   14.1410 C   0  0  1  0  0  0  0  0  0  0  0  0
   26.6040   17.5880   14.9650 C   0  0  0  0  0  0  0  0  0  0  0  0
   26.6990   18.3290   16.2890 C   0  0  0  0  0  0  0  0  0  0  0  0
   26.8770   19.8140   16.0760 C   0  0  0  0  0  0  0  0  0  0  0  0
   27.3890   20.5400   16.9230 O   0  0  0  0  0  0  0  0  0  0  0  0
   26.3630   20.3360   14.9160 N   0  0  0  0  0  0  0  0  0  0  0  0
   25.6570   19.6810   13.9320 C   0  0  0  0  0  0  0  0  0  0  0  0
   25.1450   20.3140   13.0100 O   0  0  0  0  0  0  0  0  0  0  0  0
   23.9980   17.1850   12.3460 C   0  0  0  0  0  0  0  0  0  0  0  0
   22.9050   17.5540   12.7270 O   0  0  0  0  0  0  0  0  0  0  0  0
   28.3680   15.7320    9.6500 N   0  0  0  0  0  0  0  0  0  0  0  0
   29.5560   15.1460    9.6290 N   0  0  0  0  0  0  0  0  0  0  0  0
   28.9150    9.7100    7.7700 C   0  0  0  0  0  0  0  0  0  0  0  0
   27.6230    9.4530    7.7560 N   0  0  0  0  0  0  0  0  0  0  0  0
   24.7464    9.1845    8.6779 H   0  0  0  0  0  0  0  0  0  0  0  0
   23.8606    9.4192    7.1330 H   0  0  0  0  0  0  0  0  0  0  0  0
   25.4708    8.6230    7.1330 H   0  0  0  0  0  0  0  0  0  0  0  0
   25.2396   11.1640    6.4460 H   0  0  0  0  0  0  0  0  0  0  0  0
   25.1866   11.4084    8.2455 H   0  0  0  0  0  0  0  0  0  0  0  0
   27.7740   12.7294    7.1552 H   0  0  0  0  0  0  0  0  0  0  0  0
   33.0480   11.4521   11.6774 H   0  0  0  0  0  0  0  0  0  0  0  0
   31.1853   13.2022   12.1001 H   0  0  0  0  0  0  0  0  0  0  0  0
   27.5958   12.6581   10.5459 H   0  0  0  0  0  0  0  0  0  0  0  0
   25.4621   13.9253    8.4404 H   0  0  0  0  0  0  0  0  0  0  0  0
   23.0361   14.4701    8.6297 H   0  0  0  0  0  0  0  0  0  0  0  0
   22.2206   15.9977   10.4448 H   0  0  0  0  0  0  0  0  0  0  0  0
   26.7426   16.0000   12.9554 H   0  0  0  0  0  0  0  0  0  0  0  0
   27.1386   17.3337   11.8897 H   0  0  0  0  0  0  0  0  0  0  0  0
   24.5405   18.0071   14.7265 H   0  0  0  0  0  0  0  0  0  0  0  0
   26.4148   16.5210   15.1538 H   0  0  0  0  0  0  0  0  0  0  0  0
   27.5486   17.6984   14.4122 H   0  0  0  0  0  0  0  0  0  0  0  0
   25.7762   18.1575   16.8625 H   0  0  0  0  0  0  0  0  0  0  0  0
   27.5742   17.9497   16.8369 H   0  0  0  0  0  0  0  0  0  0  0  0
   26.5252   21.3415   14.7624 H   0  0  0  0  0  0  0  0  0  0  0  0
   29.6990    8.9687    7.9837 H   0  0  0  0  0  0  0  0  0  0  0  0
  1  2  1  0
  2  3  1  0
  3  4  2  0
  4  5  1  0
  5  6  1  0
  6  7  2  0
  6  8  2  0
  6  9  1  0
  9 10  1  0
 10 11  2  0
 11 12  1  0
 12 13  1  0
 13 14  1  0
 14 15  2  0
 15 16  1  0
 16 17  1  0
 17 18  2  0
 18 19  1  0
 19 20  2  0
 20 21  1  0
 21 22  2  0
 22 23  1  0
 23 24  1  0
 24 25  1  0
 25 26  1  0
 26 27  1  0
 27 28  1  0
 28 29  2  0
 28 30  1  0
 30 31  1  0
 31 32  2  0
 24 33  1  0
 33 34  2  0
 16 35  1  0
 35 36  2  0
  5 37  1  0
 37 38  2  0
 38  3  1  0
 13  9  2  0
 36 14  1  0
 22 17  1  0
 31 25  1  0
 33 21  1  0
  1 39  1  0
  1 40  1  0
  1 41  1  0
  2 42  1  0
  2 43  1  0
  4 44  1  0
 11 45  1  0
 12 46  1  0
 15 47  1  0
 18 48  1  0
 19 49  1  0
 20 50  1  0
 23 51  1  0
 23 52  1  0
 25 53  1  1
 26 54  1  0
 26 55  1  0
 27 56  1  0
 27 57  1  0
 30 58  1  0
 37 59  1  0
M  END
>  <meeko>  (120) 
{"is_sidechain": [true], "free_energy": -14.19, "intermolecular_energy": 0.0, "internal_energy": -14.19, "cluster_size": 13, "cluster_id": 1, "rank_in_cluster": 1}

>  <_RMSD_MCS_to_ref>  (120) 
0.7149772335147767

$$$$
ligand
     RDKit          3D

 61 66  0  0  0  0  0  0  0  0999 V2000
   24.8540    9.4020    7.6050 C   0  0  0  0  0  0  0  0  0  0  0  0
   25.5230   10.7550    7.4270 C   0  0  0  0  0  0  0  0  0  0  0  0
   25.1320   11.4260    6.1550 C   0  0  0  0  0  0  0  0  0  0  0  0
   24.4730   12.6280    5.9820 C   0  0  0  0  0  0  0  0  0  0  0  0
   24.3170   12.7300    4.6300 N   0  0  0  0  0  0  0  0  0  0  0  0
   23.5860   14.0040    3.8040 S   0  0  0  0  0  6  0  0  0  0  0  0
   24.1470   13.9120    2.4670 O   0  0  0  0  0  0  0  0  0  0  0  0
   22.1580   13.8390    4.0160 O   0  0  0  0  0  0  0  0  0  0  0  0
   24.0560   15.4260    4.4410 O   0  0  0  0  0  0  0  0  0  0  0  0
   25.0740   15.4160    5.3560 C   0  0  0  0  0  0  0  0  0  0  0  0
   26.3240   15.0150    4.9480 C   0  0  0  0  0  0  0  0  0  0  0  0
   27.3430   14.9510    5.8780 C   0  0  0  0  0  0  0  0  0  0  0  0
   28.5630   14.5910    5.4460 N   0  0  0  0  0  0  0  0  0  0  0  0
   29.5740   14.5440    6.3420 C   0  0  0  0  0  0  0  0  0  0  0  0
   29.4260   14.8460    7.6800 C   0  0  0  0  0  0  0  0  0  0  0  0
   28.1620   15.2110    8.1250 C   0  0  0  0  0  0  0  0  0  0  0  0
   27.0720   15.2620    7.2240 C   0  0  0  0  0  0  0  0  0  0  0  0
   25.7440   15.6080    7.5570 C   0  0  0  0  0  0  0  0  0  0  0  0
   25.2620   15.8680    8.9270 C   0  0  0  0  0  0  0  0  0  0  0  0
   23.9330   15.5480    9.3120 C   0  0  0  0  0  0  0  0  0  0  0  0
   23.4460   15.8540   10.5880 C   0  0  0  0  0  0  0  0  0  0  0  0
   24.3030   16.5000   11.4550 C   0  0  0  0  0  0  0  0  0  0  0  0
   25.6040   16.8440   11.1060 C   0  0  0  0  0  0  0  0  0  0  0  0
   26.0980   16.5210    9.8540 C   0  0  0  0  0  0  0  0  0  0  0  0
   26.2550   17.5990   12.2160 C   0  0  0  0  0  0  0  0  0  0  0  0
   25.2450   17.5430   13.2680 N   0  0  0  0  0  0  0  0  0  0  0  0
   25.2940   18.3720   14.4660 C   0  0  1  0  0  0  0  0  0  0  0  0
   26.2520   17.8210   15.5180 C   0  0  0  0  0  0  0  0  0  0  0  0
   26.1850   18.6870   16.7660 C   0  0  0  0  0  0  0  0  0  0  0  0
   26.4850   20.1320   16.4460 C   0  0  0  0  0  0  0  0  0  0  0  0
   27.0470   20.8780   17.2420 O   0  0  0  0  0  0  0  0  0  0  0  0
   26.0660   20.5890   15.2220 N   0  0  0  0  0  0  0  0  0  0  0  0
   25.6790   19.8270   14.1420 C   0  0  0  0  0  0  0  0  0  0  0  0
   25.6400   20.3240   13.0190 O   0  0  0  0  0  0  0  0  0  0  0  0
   24.0590   16.9760   12.8220 C   0  0  0  0  0  0  0  0  0  0  0  0
   23.0030   16.8770   13.4170 O   0  0  0  0  0  0  0  0  0  0  0  0
   24.7600   15.7040    6.6250 N   0  0  0  0  0  0  0  0  0  0  0  0
   24.9340   11.6800    4.0280 C   0  0  0  0  0  0  0  0  0  0  0  0
   25.4120   10.8450    4.9290 N   0  0  0  0  0  0  0  0  0  0  0  0
   24.7464    9.1845    8.6779 H   0  0  0  0  0  0  0  0  0  0  0  0
   23.8606    9.4192    7.1330 H   0  0  0  0  0  0  0  0  0  0  0  0
   25.4708    8.6230    7.1330 H   0  0  0  0  0  0  0  0  0  0  0  0
   25.2372   11.4026    8.2690 H   0  0  0  0  0  0  0  0  0  0  0  0
   26.6096   10.5871    7.3942 H   0  0  0  0  0  0  0  0  0  0  0  0
   24.1487   13.3392    6.7560 H   0  0  0  0  0  0  0  0  0  0  0  0
   26.5098   14.7492    3.8969 H   0  0  0  0  0  0  0  0  0  0  0  0
   30.5712   14.2482    5.9841 H   0  0  0  0  0  0  0  0  0  0  0  0
   30.2804   14.7993    8.3712 H   0  0  0  0  0  0  0  0  0  0  0  0
   28.0072   15.4621    9.1847 H   0  0  0  0  0  0  0  0  0  0  0  0
   23.2706   15.0478    8.5902 H   0  0  0  0  0  0  0  0  0  0  0  0
   22.4210   15.5900   10.8876 H   0  0  0  0  0  0  0  0  0  0  0  0
   27.1347   16.7721    9.5851 H   0  0  0  0  0  0  0  0  0  0  0  0
   27.1886   17.1122   12.5344 H   0  0  0  0  0  0  0  0  0  0  0  0
   26.5453   18.6234   11.9396 H   0  0  0  0  0  0  0  0  0  0  0  0
   24.2750   18.3536   14.8798 H   0  0  0  0  0  0  0  0  0  0  0  0
   25.9651   16.7897   15.7712 H   0  0  0  0  0  0  0  0  0  0  0  0
   27.2776   17.8286   15.1205 H   0  0  0  0  0  0  0  0  0  0  0  0
   25.1754   18.6173   17.1971 H   0  0  0  0  0  0  0  0  0  0  0  0
   26.9385   18.3254   17.4812 H   0  0  0  0  0  0  0  0  0  0  0  0
   26.0379   21.6111   15.0976 H   0  0  0  0  0  0  0  0  0  0  0  0
   25.0224   11.5453    2.9399 H   0  0  0  0  0  0  0  0  0  0  0  0
  1  2  1  0
  2  3  1  0
  3  4  2  0
  4  5  1  0
  5  6  1  0
  6  7  2  0
  6  8  2  0
  6  9  1  0
  9 10  1  0
 10 11  2  0
 11 12  1  0
 12 13  2  0
 13 14  1  0
 14 15  2  0
 15 16  1  0
 16 17  2  0
 17 18  1  0
 18 19  1  0
 19 20  2  0
 20 21  1  0
 21 22  2  0
 22 23  1  0
 23 24  2  0
 23 25  1  0
 25 26  1  0
 26 27  1  0
 27 28  1  0
 28 29  1  0
 29 30  1  0
 30 31  2  0
 30 32  1  0
 32 33  1  0
 33 34  2  0
 26 35  1  0
 35 36  2  0
 18 37  2  0
  5 38  1  0
 38 39  2  0
 39  3  1  0
 37 10  1  0
 17 12  1  0
 24 19  1  0
 33 27  1  0
 35 22  1  0
  1 40  1  0
  1 41  1  0
  1 42  1  0
  2 43  1  0
  2 44  1  0
  4 45  1  0
 11 46  1  0
 14 47  1  0
 15 48  1  0
 16 49  1  0
 20 50  1  0
 21 51  1  0
 24 52  1  0
 25 53  1  0
 25 54  1  0
 27 55  1  1
 28 56  1  0
 28 57  1  0
 29 58  1  0
 29 59  1  0
 32 60  1  0
 38 61  1  0
M  END
>  <meeko>  (121) 
{"is_sidechain": [true], "free_energy": -14.19, "intermolecular_energy": 0.0, "internal_energy": -14.19, "cluster_size": 19, "cluster_id": 1, "rank_in_cluster": 1}

>  <_RMSD_MCS_to_ref>  (121) 
0.6249328852853805

$$$$
ligand
     RDKit          3D

 60 65  0  0  0  0  0  0  0  0999 V2000
   24.8710    9.6160    7.7820 C   0  0  0  0  0  0  0  0  0  0  0  0
   25.4240   10.9650    7.3490 C   0  0  0  0  0  0  0  0  0  0  0  0
   24.9020   11.3870    6.0210 C   0  0  0  0  0  0  0  0  0  0  0  0
   24.1250   12.4840    5.7030 C   0  0  0  0  0  0  0  0  0  0  0  0
   23.9440   12.3890    4.3530 N   0  0  0  0  0  0  0  0  0  0  0  0
   23.3750   13.6220    3.3460 S   0  0  0  0  0  6  0  0  0  0  0  0
   23.7560   13.2020    2.0120 O   0  0  0  0  0  0  0  0  0  0  0  0
   21.9830   13.7950    3.7150 O   0  0  0  0  0  0  0  0  0  0  0  0
   24.2240   14.9750    3.7180 O   0  0  0  0  0  0  0  0  0  0  0  0
   25.5270   14.8900    4.1730 C   0  0  0  0  0  0  0  0  0  0  0  0
   26.5590   14.6230    3.3480 C   0  0  0  0  0  0  0  0  0  0  0  0
   27.9090   14.5600    3.8880 C   0  0  0  0  0  0  0  0  0  0  0  0
   28.1550   14.7720    5.1940 C   0  0  0  0  0  0  0  0  0  0  0  0
   27.0770   15.0570    6.0790 C   0  0  0  0  0  0  0  0  0  0  0  0
   27.0590   15.3450    7.3620 N   0  0  0  0  0  0  0  0  0  0  0  0
   25.7330   15.5400    7.6800 C   0  0  0  0  0  0  0  0  0  0  0  0
   25.2760   15.9270    9.0060 C   0  0  0  0  0  0  0  0  0  0  0  0
   23.9840   15.5350    9.4300 C   0  0  0  0  0  0  0  0  0  0  0  0
   23.5050   15.8690   10.7010 C   0  0  0  0  0  0  0  0  0  0  0  0
   24.3480   16.5830   11.5270 C   0  0  0  0  0  0  0  0  0  0  0  0
   25.6260   16.9760   11.1400 C   0  0  0  0  0  0  0  0  0  0  0  0
   26.1040   16.6570    9.8780 C   0  0  0  0  0  0  0  0  0  0  0  0
   26.2880   17.7320   12.2410 C   0  0  0  0  0  0  0  0  0  0  0  0
   25.3040   17.6540   13.3140 N   0  0  0  0  0  0  0  0  0  0  0  0
   25.3790   18.4520   14.5320 C   0  0  1  0  0  0  0  0  0  0  0  0
   26.2960   17.8290   15.5810 C   0  0  0  0  0  0  0  0  0  0  0  0
   26.2500   18.6650   16.8510 C   0  0  0  0  0  0  0  0  0  0  0  0
   26.6070   20.1060   16.5710 C   0  0  0  0  0  0  0  0  0  0  0  0
   27.2360   20.7940   17.3680 O   0  0  0  0  0  0  0  0  0  0  0  0
   26.1760   20.6240   15.3760 N   0  0  0  0  0  0  0  0  0  0  0  0
   25.8390   19.8940   14.2590 C   0  0  0  0  0  0  0  0  0  0  0  0
   25.9250   20.3980   13.1410 O   0  0  0  0  0  0  0  0  0  0  0  0
   24.1230   17.0570   12.8980 C   0  0  0  0  0  0  0  0  0  0  0  0
   23.0880   16.9310   13.5220 O   0  0  0  0  0  0  0  0  0  0  0  0
   24.9360   15.3200    6.5780 C   0  0  0  0  0  0  0  0  0  0  0  0
   25.7960   15.0730    5.5370 N   0  0  0  0  0  0  0  0  0  0  0  0
   24.6180   11.3040    3.8890 C   0  0  0  0  0  0  0  0  0  0  0  0
   25.2090   10.6680    4.8800 N   0  0  0  0  0  0  0  0  0  0  0  0
   24.8497    9.5640    8.8806 H   0  0  0  0  0  0  0  0  0  0  0  0
   23.8507    9.4948    7.3893 H   0  0  0  0  0  0  0  0  0  0  0  0
   25.5127    8.8135    7.3893 H   0  0  0  0  0  0  0  0  0  0  0  0
   25.1412   11.7203    8.0970 H   0  0  0  0  0  0  0  0  0  0  0  0
   26.5170   10.8713    7.2677 H   0  0  0  0  0  0  0  0  0  0  0  0
   23.7397   13.2581    6.3829 H   0  0  0  0  0  0  0  0  0  0  0  0
   26.3823   14.4541    2.2755 H   0  0  0  0  0  0  0  0  0  0  0  0
   28.7477   14.3339    3.2131 H   0  0  0  0  0  0  0  0  0  0  0  0
   29.1854   14.7252    5.5763 H   0  0  0  0  0  0  0  0  0  0  0  0
   23.3443   14.9567    8.7471 H   0  0  0  0  0  0  0  0  0  0  0  0
   22.4971   15.5743   11.0285 H   0  0  0  0  0  0  0  0  0  0  0  0
   27.1113   16.9688    9.5648 H   0  0  0  0  0  0  0  0  0  0  0  0
   27.2356   17.2572   12.5354 H   0  0  0  0  0  0  0  0  0  0  0  0
   26.5556   18.7628   11.9657 H   0  0  0  0  0  0  0  0  0  0  0  0
   24.3522   18.4737   14.9260 H   0  0  0  0  0  0  0  0  0  0  0  0
   25.9586   16.8057   15.8025 H   0  0  0  0  0  0  0  0  0  0  0  0
   27.3265   17.7987   15.1975 H   0  0  0  0  0  0  0  0  0  0  0  0
   25.2346   18.6224   17.2718 H   0  0  0  0  0  0  0  0  0  0  0  0
   26.9828   18.2571   17.5627 H   0  0  0  0  0  0  0  0  0  0  0  0
   26.0978   21.6488   15.3089 H   0  0  0  0  0  0  0  0  0  0  0  0
   23.8368   15.3385    6.5401 H   0  0  0  0  0  0  0  0  0  0  0  0
   24.6638   10.9992    2.8331 H   0  0  0  0  0  0  0  0  0  0  0  0
  1  2  1  0
  2  3  1  0
  3  4  2  0
  4  5  1  0
  5  6  1  0
  6  7  2  0
  6  8  2  0
  6  9  1  0
  9 10  1  0
 10 11  2  0
 11 12  1  0
 12 13  2  0
 13 14  1  0
 14 15  2  0
 15 16  1  0
 16 17  1  0
 17 18  2  0
 18 19  1  0
 19 20  2  0
 20 21  1  0
 21 22  2  0
 21 23  1  0
 23 24  1  0
 24 25  1  0
 25 26  1  0
 26 27  1  0
 27 28  1  0
 28 29  2  0
 28 30  1  0
 30 31  1  0
 31 32  2  0
 24 33  1  0
 33 34  2  0
 16 35  2  0
 35 36  1  0
  5 37  1  0
 37 38  2  0
 38  3  1  0
 36 10  1  0
 36 14  1  0
 22 17  1  0
 31 25  1  0
 33 20  1  0
  1 39  1  0
  1 40  1  0
  1 41  1  0
  2 42  1  0
  2 43  1  0
  4 44  1  0
 11 45  1  0
 12 46  1  0
 13 47  1  0
 18 48  1  0
 19 49  1  0
 22 50  1  0
 23 51  1  0
 23 52  1  0
 25 53  1  1
 26 54  1  0
 26 55  1  0
 27 56  1  0
 27 57  1  0
 30 58  1  0
 35 59  1  0
 37 60  1  0
M  END
>  <meeko>  (122) 
{"is_sidechain": [true], "free_energy": -14.19, "intermolecular_energy": 0.0, "internal_energy": -14.19, "cluster_size": 7, "cluster_id": 1, "rank_in_cluster": 1}

>  <_RMSD_MCS_to_ref>  (122) 
0.6034387859767159

$$$$
ligand
     RDKit          3D

 55 59  0  0  0  0  0  0  0  0999 V2000
   24.8540    9.4020    7.6050 C   0  0  0  0  0  0  0  0  0  0  0  0
   25.5230   10.7550    7.4270 C   0  0  0  0  0  0  0  0  0  0  0  0
   26.9810   10.7150    7.7280 C   0  0  0  0  0  0  0  0  0  0  0  0
   27.7790   11.6940    8.2910 C   0  0  0  0  0  0  0  0  0  0  0  0
   29.0250   11.1420    8.3030 N   0  0  0  0  0  0  0  0  0  0  0  0
   30.4640   11.9470    8.6760 S   0  0  0  0  0  6  0  0  0  0  0  0
   30.6450   12.9230    7.6150 O   0  0  0  0  0  0  0  0  0  0  0  0
   31.4310   10.8840    8.8780 O   0  0  0  0  0  0  0  0  0  0  0  0
   30.3050   12.7520   10.0850 O   0  0  0  0  0  0  0  0  0  0  0  0
   29.7710   14.0000   10.0080 C   0  0  0  0  0  0  0  0  0  0  0  0
   30.5540   15.1060    9.7420 C   0  0  0  0  0  0  0  0  0  0  0  0
   30.0200   16.3440    9.6380 N   0  0  0  0  0  0  0  0  0  0  0  0
   28.6720   16.4170    9.8050 C   0  0  0  0  0  0  0  0  0  0  0  0
   27.8750   15.3080   10.0830 C   0  0  0  0  0  0  0  0  0  0  0  0
   26.4110   15.3530   10.2180 C   0  0  0  0  0  0  0  0  0  0  0  0
   25.5600   14.6270    9.3540 C   0  0  0  0  0  0  0  0  0  0  0  0
   24.1570   14.6280    9.5010 C   0  0  0  0  0  0  0  0  0  0  0  0
   23.5540   15.3560   10.5210 C   0  0  0  0  0  0  0  0  0  0  0  0
   24.3860   16.0650   11.3640 C   0  0  0  0  0  0  0  0  0  0  0  0
   25.7770   16.0750   11.2310 C   0  0  0  0  0  0  0  0  0  0  0  0
   26.3640   16.9200   12.3180 C   0  0  0  0  0  0  0  0  0  0  0  0
   25.1920   17.4700   12.9820 N   0  0  0  0  0  0  0  0  0  0  0  0
   25.3120   18.2020   14.2400 C   0  0  1  0  0  0  0  0  0  0  0  0
   26.3360   17.6040   15.2050 C   0  0  0  0  0  0  0  0  0  0  0  0
   26.3290   18.3980   16.5030 C   0  0  0  0  0  0  0  0  0  0  0  0
   26.6060   19.8610   16.2500 C   0  0  0  0  0  0  0  0  0  0  0  0
   27.0480   20.6030   17.1230 O   0  0  0  0  0  0  0  0  0  0  0  0
   26.2590   20.3510   15.0160 N   0  0  0  0  0  0  0  0  0  0  0  0
   25.6040   19.6930   14.0000 C   0  0  0  0  0  0  0  0  0  0  0  0
   25.1940   20.3180   13.0220 O   0  0  0  0  0  0  0  0  0  0  0  0
   24.0210   16.8980   12.5150 C   0  0  0  0  0  0  0  0  0  0  0  0
   22.8930   17.0190   12.9500 O   0  0  0  0  0  0  0  0  0  0  0  0
   28.4420   14.0800   10.2130 N   0  0  0  0  0  0  0  0  0  0  0  0
   28.9690    9.8970    7.7610 C   0  0  0  0  0  0  0  0  0  0  0  0
   27.7350    9.6000    7.4130 N   0  0  0  0  0  0  0  0  0  0  0  0
   24.7464    9.1845    8.6779 H   0  0  0  0  0  0  0  0  0  0  0  0
   23.8606    9.4192    7.1330 H   0  0  0  0  0  0  0  0  0  0  0  0
   25.4708    8.6230    7.1330 H   0  0  0  0  0  0  0  0  0  0  0  0
   25.3868   11.0815    6.3854 H   0  0  0  0  0  0  0  0  0  0  0  0
   25.0549   11.4547    8.1350 H   0  0  0  0  0  0  0  0  0  0  0  0
   27.4773   12.6899    8.6474 H   0  0  0  0  0  0  0  0  0  0  0  0
   31.6386   14.9768    9.6115 H   0  0  0  0  0  0  0  0  0  0  0  0
   28.1868   17.4002    9.7162 H   0  0  0  0  0  0  0  0  0  0  0  0
   26.0075   14.0405    8.5381 H   0  0  0  0  0  0  0  0  0  0  0  0
   23.5349   14.0483    8.8032 H   0  0  0  0  0  0  0  0  0  0  0  0
   22.4617   15.3664   10.6504 H   0  0  0  0  0  0  0  0  0  0  0  0
   26.9609   16.3105   13.0124 H   0  0  0  0  0  0  0  0  0  0  0  0
   27.0485   17.6939   11.9404 H   0  0  0  0  0  0  0  0  0  0  0  0
   24.3307   18.1049   14.7275 H   0  0  0  0  0  0  0  0  0  0  0  0
   26.0752   16.5560   15.4141 H   0  0  0  0  0  0  0  0  0  0  0  0
   27.3376   17.6477   14.7523 H   0  0  0  0  0  0  0  0  0  0  0  0
   25.3431   18.2968   16.9802 H   0  0  0  0  0  0  0  0  0  0  0  0
   27.1193   18.0021   17.1577 H   0  0  0  0  0  0  0  0  0  0  0  0
   26.5203   21.3293   14.8274 H   0  0  0  0  0  0  0  0  0  0  0  0
   29.8344    9.2305    7.6313 H   0  0  0  0  0  0  0  0  0  0  0  0
  1  2  1  0
  2  3  1  0
  3  4  2  0
  4  5  1  0
  5  6  1  0
  6  7  2  0
  6  8  2  0
  6  9  1  0
  9 10  1  0
 10 11  2  0
 11 12  1  0
 12 13  2  0
 13 14  1  0
 14 15  1  0
 15 16  2  0
 16 17  1  0
 17 18  2  0
 18 19  1  0
 19 20  2  0
 20 21  1  0
 21 22  1  0
 22 23  1  0
 23 24  1  0
 24 25  1  0
 25 26  1  0
 26 27  2  0
 26 28  1  0
 28 29  1  0
 29 30  2  0
 22 31  1  0
 31 32  2  0
 14 33  2  0
  5 34  1  0
 34 35  2  0
 35  3  1  0
 33 10  1  0
 20 15  1  0
 29 23  1  0
 31 19  1  0
  1 36  1  0
  1 37  1  0
  1 38  1  0
  2 39  1  0
  2 40  1  0
  4 41  1  0
 11 42  1  0
 13 43  1  0
 16 44  1  0
 17 45  1  0
 18 46  1  0
 21 47  1  0
 21 48  1  0
 23 49  1  1
 24 50  1  0
 24 51  1  0
 25 52  1  0
 25 53  1  0
 28 54  1  0
 34 55  1  0
M  END
>  <meeko>  (123) 
{"is_sidechain": [true], "free_energy": -14.18, "intermolecular_energy": 0.0, "internal_energy": -14.18, "cluster_size": 20, "cluster_id": 1, "rank_in_cluster": 1}

>  <_RMSD_MCS_to_ref>  (123) 
0.6087243492200164

$$$$
ligand
     RDKit          3D

 60 65  0  0  0  0  0  0  0  0999 V2000
   24.8540    9.4020    7.6050 C   0  0  0  0  0  0  0  0  0  0  0  0
   25.5230   10.7550    7.4270 C   0  0  0  0  0  0  0  0  0  0  0  0
   27.0040   10.6420    7.3340 C   0  0  0  0  0  0  0  0  0  0  0  0
   27.8890   11.4080    6.6010 C   0  0  0  0  0  0  0  0  0  0  0  0
   29.1090   10.8490    6.8580 N   0  0  0  0  0  0  0  0  0  0  0  0
   30.6030   11.5170    6.4520 S   0  0  0  0  0  6  0  0  0  0  0  0
   31.5810   10.6290    7.0480 O   0  0  0  0  0  0  0  0  0  0  0  0
   30.5360   11.7280    5.0180 O   0  0  0  0  0  0  0  0  0  0  0  0
   30.6630   12.9670    7.2070 O   0  0  0  0  0  0  0  0  0  0  0  0
   29.7400   13.9070    6.9970 C   0  0  0  0  0  0  0  0  0  0  0  0
   29.5900   14.9180    6.0670 C   0  0  0  0  0  0  0  0  0  0  0  0
   28.4400   15.6340    6.2840 N   0  0  0  0  0  0  0  0  0  0  0  0
   27.8760   15.0770    7.3330 C   0  0  0  0  0  0  0  0  0  0  0  0
   26.6680   15.3870    8.0210 C   0  0  0  0  0  0  0  0  0  0  0  0
   26.2930   14.6630    9.1010 C   0  0  0  0  0  0  0  0  0  0  0  0
   25.0440   15.0430    9.7790 C   0  0  0  0  0  0  0  0  0  0  0  0
   23.7970   14.6390    9.2680 C   0  0  0  0  0  0  0  0  0  0  0  0
   22.5960   14.9890    9.9120 C   0  0  0  0  0  0  0  0  0  0  0  0
   22.6160   15.7470   11.0840 C   0  0  0  0  0  0  0  0  0  0  0  0
   23.8500   16.1270   11.5740 C   0  0  0  0  0  0  0  0  0  0  0  0
   25.0510   15.7930   10.9460 C   0  0  0  0  0  0  0  0  0  0  0  0
   26.2010   16.3630   11.7140 C   0  0  0  0  0  0  0  0  0  0  0  0
   25.5410   17.0050   12.8440 N   0  0  0  0  0  0  0  0  0  0  0  0
   26.2200   17.8780   13.7970 C   0  0  2  0  0  0  0  0  0  0  0  0
   25.8570   17.5030   15.2350 C   0  0  0  0  0  0  0  0  0  0  0  0
   26.6740   18.3400   16.2050 C   0  0  0  0  0  0  0  0  0  0  0  0
   26.4820   19.8150   15.9530 C   0  0  0  0  0  0  0  0  0  0  0  0
   26.5360   20.6490   16.8520 O   0  0  0  0  0  0  0  0  0  0  0  0
   26.2760   20.1930   14.6510 N   0  0  0  0  0  0  0  0  0  0  0  0
   25.9740   19.3810   13.5820 C   0  0  0  0  0  0  0  0  0  0  0  0
   25.5690   19.8730   12.5310 O   0  0  0  0  0  0  0  0  0  0  0  0
   24.1610   16.9270   12.7630 C   0  0  0  0  0  0  0  0  0  0  0  0
   23.3390   17.4370   13.4980 O   0  0  0  0  0  0  0  0  0  0  0  0
   27.1230   13.5510    9.5700 C   0  0  0  0  0  0  0  0  0  0  0  0
   28.2630   13.2540    8.9230 C   0  0  0  0  0  0  0  0  0  0  0  0
   28.6330   14.0130    7.8150 N   0  0  0  0  0  0  0  0  0  0  0  0
   28.9570    9.8520    7.7670 C   0  0  0  0  0  0  0  0  0  0  0  0
   27.6840    9.6840    8.0600 N   0  0  0  0  0  0  0  0  0  0  0  0
   24.7464    9.1845    8.6779 H   0  0  0  0  0  0  0  0  0  0  0  0
   23.8606    9.4192    7.1330 H   0  0  0  0  0  0  0  0  0  0  0  0
   25.4708    8.6230    7.1330 H   0  0  0  0  0  0  0  0  0  0  0  0
   25.1445   11.2187    6.5041 H   0  0  0  0  0  0  0  0  0  0  0  0
   25.2858   11.3676    8.3093 H   0  0  0  0  0  0  0  0  0  0  0  0
   27.6633   12.2710    5.9573 H   0  0  0  0  0  0  0  0  0  0  0  0
   30.3030   15.1229    5.2548 H   0  0  0  0  0  0  0  0  0  0  0  0
   26.0373   16.2183    7.6730 H   0  0  0  0  0  0  0  0  0  0  0  0
   23.7603   14.0380    8.3474 H   0  0  0  0  0  0  0  0  0  0  0  0
   21.6344   14.6630    9.4889 H   0  0  0  0  0  0  0  0  0  0  0  0
   21.6853   16.0306   11.5972 H   0  0  0  0  0  0  0  0  0  0  0  0
   26.8850   15.5704   12.0515 H   0  0  0  0  0  0  0  0  0  0  0  0
   26.8244   17.0502   11.1231 H   0  0  0  0  0  0  0  0  0  0  0  0
   27.2918   17.7114   13.6137 H   0  0  0  0  0  0  0  0  0  0  0  0
   24.7861   17.6906   15.4025 H   0  0  0  0  0  0  0  0  0  0  0  0
   26.0759   16.4376   15.3997 H   0  0  0  0  0  0  0  0  0  0  0  0
   26.3579   18.1080   17.2327 H   0  0  0  0  0  0  0  0  0  0  0  0
   27.7375   18.0988   16.0610 H   0  0  0  0  0  0  0  0  0  0  0  0
   26.3566   21.2000   14.4503 H   0  0  0  0  0  0  0  0  0  0  0  0
   26.8151   12.9623   10.4467 H   0  0  0  0  0  0  0  0  0  0  0  0
   28.8962   12.4217    9.2642 H   0  0  0  0  0  0  0  0  0  0  0  0
   29.7820    9.2662    8.1986 H   0  0  0  0  0  0  0  0  0  0  0  0
  1  2  1  0
  2  3  1  0
  3  4  2  0
  4  5  1  0
  5  6  1  0
  6  7  2  0
  6  8  2  0
  6  9  1  0
  9 10  1  0
 10 11  2  0
 11 12  1  0
 12 13  2  0
 13 14  1  0
 14 15  2  0
 15 16  1  0
 16 17  2  0
 17 18  1  0
 18 19  2  0
 19 20  1  0
 20 21  2  0
 21 22  1  0
 22 23  1  0
 23 24  1  0
 24 25  1  0
 25 26  1  0
 26 27  1  0
 27 28  2  0
 27 29  1  0
 29 30  1  0
 30 31  2  0
 23 32  1  0
 32 33  2  0
 15 34  1  0
 34 35  2  0
 35 36  1  0
  5 37  1  0
 37 38  2  0
 38  3  1  0
 36 10  1  0
 36 13  1  0
 21 16  1  0
 30 24  1  0
 32 20  1  0
  1 39  1  0
  1 40  1  0
  1 41  1  0
  2 42  1  0
  2 43  1  0
  4 44  1  0
 11 45  1  0
 14 46  1  0
 17 47  1  0
 18 48  1  0
 19 49  1  0
 22 50  1  0
 22 51  1  0
 24 52  1  1
 25 53  1  0
 25 54  1  0
 26 55  1  0
 26 56  1  0
 29 57  1  0
 34 58  1  0
 35 59  1  0
 37 60  1  0
M  END
>  <meeko>  (124) 
{"is_sidechain": [true], "free_energy": -14.17, "intermolecular_energy": 0.0, "internal_energy": -14.17, "cluster_size": 15, "cluster_id": 1, "rank_in_cluster": 1}

>  <_RMSD_MCS_to_ref>  (124) 
1.136537480439797

$$$$
ligand
     RDKit          3D

 63 68  0  0  0  0  0  0  0  0999 V2000
   24.8710    9.6160    7.7820 C   0  0  0  0  0  0  0  0  0  0  0  0
   25.4240   10.9650    7.3490 C   0  0  0  0  0  0  0  0  0  0  0  0
   26.8380   11.1550    7.7730 C   0  0  0  0  0  0  0  0  0  0  0  0
   27.3270   11.6620    8.9610 C   0  0  0  0  0  0  0  0  0  0  0  0
   28.6840   11.6110    8.8150 N   0  0  0  0  0  0  0  0  0  0  0  0
   29.8130   12.3480    9.8340 S   0  0  0  0  0  6  0  0  0  0  0  0
   29.4160   11.9190   11.1620 O   0  0  0  0  0  0  0  0  0  0  0  0
   31.1080   11.9950    9.2820 O   0  0  0  0  0  0  0  0  0  0  0  0
   29.6200   13.9720    9.7440 O   0  0  0  0  0  0  0  0  0  0  0  0
   28.5140   14.4990    9.1320 C   0  0  0  0  0  0  0  0  0  0  0  0
   28.6180   14.7970    7.7780 C   0  0  0  0  0  0  0  0  0  0  0  0
   27.5090   15.3550    7.1710 C   0  0  0  0  0  0  0  0  0  0  0  0
   26.3180   15.6100    7.8430 C   0  0  0  0  0  0  0  0  0  0  0  0
   26.1970   15.2900    9.1950 C   0  0  0  0  0  0  0  0  0  0  0  0
   24.9710   15.5630    9.9420 C   0  0  0  0  0  0  0  0  0  0  0  0
   23.7070   15.2470    9.4070 C   0  0  0  0  0  0  0  0  0  0  0  0
   22.5190   15.5380   10.1060 C   0  0  0  0  0  0  0  0  0  0  0  0
   22.5630   16.1500   11.3570 C   0  0  0  0  0  0  0  0  0  0  0  0
   23.8100   16.4440   11.8740 C   0  0  0  0  0  0  0  0  0  0  0  0
   24.9950   16.1590   11.1980 C   0  0  0  0  0  0  0  0  0  0  0  0
   26.1590   16.6080   12.0200 C   0  0  0  0  0  0  0  0  0  0  0  0
   25.5320   17.0860   13.2410 N   0  0  0  0  0  0  0  0  0  0  0  0
   26.3050   17.8200   14.2370 C   0  0  2  0  0  0  0  0  0  0  0  0
   25.7710   17.6770   15.6620 C   0  0  0  0  0  0  0  0  0  0  0  0
   26.6880   18.4240   16.6180 C   0  0  0  0  0  0  0  0  0  0  0  0
   26.8230   19.8760   16.2240 C   0  0  0  0  0  0  0  0  0  0  0  0
   27.1370   20.7470   17.0310 O   0  0  0  0  0  0  0  0  0  0  0  0
   26.6590   20.1740   14.8950 N   0  0  0  0  0  0  0  0  0  0  0  0
   26.4310   19.3020   13.8540 C   0  0  0  0  0  0  0  0  0  0  0  0
   26.4370   19.7070   12.6920 O   0  0  0  0  0  0  0  0  0  0  0  0
   24.1500   17.0880   13.1480 C   0  0  0  0  0  0  0  0  0  0  0  0
   23.3380   17.5410   13.9300 O   0  0  0  0  0  0  0  0  0  0  0  0
   27.3130   14.7110    9.8310 C   0  0  0  0  0  0  0  0  0  0  0  0
   25.2890   16.2220    6.9390 C   0  0  0  0  0  0  0  0  0  0  0  0
   25.9800   16.3240    5.5670 C   0  0  0  0  0  0  0  0  0  0  0  0
   27.3660   15.7800    5.7870 C   0  0  0  0  0  0  0  0  0  0  0  0
   28.2560   15.6980    4.9600 O   0  0  0  0  0  0  0  0  0  0  0  0
   28.9800   11.1020    7.5910 C   0  0  0  0  0  0  0  0  0  0  0  0
   27.8780   10.8220    6.9240 N   0  0  0  0  0  0  0  0  0  0  0  0
   24.8497    9.5640    8.8806 H   0  0  0  0  0  0  0  0  0  0  0  0
   23.8507    9.4948    7.3893 H   0  0  0  0  0  0  0  0  0  0  0  0
   25.5127    8.8135    7.3893 H   0  0  0  0  0  0  0  0  0  0  0  0
   25.3705   11.0344    6.2525 H   0  0  0  0  0  0  0  0  0  0  0  0
   24.8191   11.7481    7.8295 H   0  0  0  0  0  0  0  0  0  0  0  0
   26.7541   12.0243    9.8273 H   0  0  0  0  0  0  0  0  0  0  0  0
   29.5417   14.5975    7.2151 H   0  0  0  0  0  0  0  0  0  0  0  0
   23.6461   14.7622    8.4215 H   0  0  0  0  0  0  0  0  0  0  0  0
   21.5473   15.2796    9.6599 H   0  0  0  0  0  0  0  0  0  0  0  0
   21.6428   16.3892   11.9102 H   0  0  0  0  0  0  0  0  0  0  0  0
   26.8424   15.7715   12.2278 H   0  0  0  0  0  0  0  0  0  0  0  0
   26.7735   17.3716   11.5206 H   0  0  0  0  0  0  0  0  0  0  0  0
   27.3036   17.3587   14.2367 H   0  0  0  0  0  0  0  0  0  0  0  0
   24.7572   18.1000   15.7190 H   0  0  0  0  0  0  0  0  0  0  0  0
   25.7373   16.6129   15.9386 H   0  0  0  0  0  0  0  0  0  0  0  0
   26.2711   18.3654   17.6343 H   0  0  0  0  0  0  0  0  0  0  0  0
   27.6841   17.9589   16.5796 H   0  0  0  0  0  0  0  0  0  0  0  0
   26.7130   21.1718   14.6454 H   0  0  0  0  0  0  0  0  0  0  0  0
   27.2434   14.4207   10.8897 H   0  0  0  0  0  0  0  0  0  0  0  0
   24.3975   15.5807    6.8769 H   0  0  0  0  0  0  0  0  0  0  0  0
   24.9457   17.2011    7.3043 H   0  0  0  0  0  0  0  0  0  0  0  0
   25.4432   15.7230    4.8182 H   0  0  0  0  0  0  0  0  0  0  0  0
   25.9969   17.3568    5.1889 H   0  0  0  0  0  0  0  0  0  0  0  0
   29.9994   10.9450    7.2088 H   0  0  0  0  0  0  0  0  0  0  0  0
  1  2  1  0
  2  3  1  0
  3  4  2  0
  4  5  1  0
  5  6  1  0
  6  7  2  0
  6  8  2  0
  6  9  1  0
  9 10  1  0
 10 11  2  0
 11 12  1  0
 12 13  2  0
 13 14  1  0
 14 15  1  0
 15 16  2  0
 16 17  1  0
 17 18  2  0
 18 19  1  0
 19 20  2  0
 20 21  1  0
 21 22  1  0
 22 23  1  0
 23 24  1  0
 24 25  1  0
 25 26  1  0
 26 27  2  0
 26 28  1  0
 28 29  1  0
 29 30  2  0
 22 31  1  0
 31 32  2  0
 14 33  2  0
 13 34  1  0
 34 35  1  0
 35 36  1  0
 36 37  2  0
  5 38  1  0
 38 39  2  0
 39  3  1  0
 33 10  1  0
 36 12  1  0
 20 15  1  0
 29 23  1  0
 31 19  1  0
  1 40  1  0
  1 41  1  0
  1 42  1  0
  2 43  1  0
  2 44  1  0
  4 45  1  0
 11 46  1  0
 16 47  1  0
 17 48  1  0
 18 49  1  0
 21 50  1  0
 21 51  1  0
 23 52  1  1
 24 53  1  0
 24 54  1  0
 25 55  1  0
 25 56  1  0
 28 57  1  0
 33 58  1  0
 34 59  1  0
 34 60  1  0
 35 61  1  0
 35 62  1  0
 38 63  1  0
M  END
>  <meeko>  (125) 
{"is_sidechain": [true], "free_energy": -14.17, "intermolecular_energy": 0.0, "internal_energy": -14.17, "cluster_size": 16, "cluster_id": 1, "rank_in_cluster": 1}

>  <_RMSD_MCS_to_ref>  (125) 
1.1887250639983067

$$$$
ligand
     RDKit          3D

 59 63  0  0  0  0  0  0  0  0999 V2000
   24.8540    9.4020    7.6050 C   0  0  0  0  0  0  0  0  0  0  0  0
   25.5230   10.7550    7.4270 C   0  0  0  0  0  0  0  0  0  0  0  0
   26.9910   10.6330    7.2160 C   0  0  0  0  0  0  0  0  0  0  0  0
   28.0250   11.0260    8.0440 C   0  0  0  0  0  0  0  0  0  0  0  0
   29.1530   10.6420    7.3760 N   0  0  0  0  0  0  0  0  0  0  0  0
   30.7320   11.0640    7.7870 S   0  0  0  0  0  6  0  0  0  0  0  0
   31.2080   11.8510    6.6640 O   0  0  0  0  0  0  0  0  0  0  0  0
   31.3640    9.8110    8.1540 O   0  0  0  0  0  0  0  0  0  0  0  0
   30.6130   12.0160    9.1020 O   0  0  0  0  0  0  0  0  0  0  0  0
   29.7390   13.0210    9.1830 C   0  0  0  0  0  0  0  0  0  0  0  0
   29.6890   14.2420    8.5350 C   0  0  0  0  0  0  0  0  0  0  0  0
   28.5620   15.0270    8.9240 C   0  0  0  0  0  0  0  0  0  0  0  0
   27.7820   14.3710    9.8550 C   0  0  0  0  0  0  0  0  0  0  0  0
   28.4100   12.8440   10.2570 S   0  0  0  0  0  0  0  0  0  0  0  0
   26.5340   14.9090   10.4890 C   0  0  0  0  0  0  0  0  0  0  0  0
   26.1160   16.1400    9.8020 N   0  0  0  0  0  0  0  0  0  0  0  0
   24.8210   16.5770   10.0810 C   0  0  0  0  0  0  0  0  0  0  0  0
   23.9980   16.8470    9.2090 O   0  0  0  0  0  0  0  0  0  0  0  0
   24.4100   16.7550   11.4920 C   0  0  0  0  0  0  0  0  0  0  0  0
   23.3060   16.0700   12.0040 C   0  0  0  0  0  0  0  0  0  0  0  0
   22.9590   16.2480   13.3380 C   0  0  0  0  0  0  0  0  0  0  0  0
   23.7220   17.0900   14.1560 C   0  0  0  0  0  0  0  0  0  0  0  0
   24.8550   17.7630   13.6700 C   0  0  0  0  0  0  0  0  0  0  0  0
   25.6530   18.5940   14.5260 N   0  0  0  0  0  0  0  0  0  0  0  0
   26.6120   17.9770   15.4400 C   0  0  0  0  0  0  0  0  0  0  0  0
   26.6770   18.7350   16.7500 C   0  0  0  0  0  0  0  0  0  0  0  0
   26.9570   20.1790   16.4700 C   0  0  0  0  0  0  0  0  0  0  0  0
   27.4670   20.9250   17.3000 O   0  0  0  0  0  0  0  0  0  0  0  0
   26.5260   20.6420   15.2590 N   0  0  0  0  0  0  0  0  0  0  0  0
   25.7040   19.9850   14.3750 C   0  0  0  0  0  0  0  0  0  0  0  0
   25.1060   20.6530   13.5360 O   0  0  0  0  0  0  0  0  0  0  0  0
   25.1900   17.5730   12.3210 C   0  0  0  0  0  0  0  0  0  0  0  0
   27.1990   17.0590    9.3940 C   0  0  0  0  0  0  0  0  0  0  0  0
   28.1840   16.3860    8.4250 C   0  0  0  0  0  0  0  0  0  0  0  0
   28.8020   10.1250    6.1710 C   0  0  0  0  0  0  0  0  0  0  0  0
   27.4910   10.0800    6.0530 N   0  0  0  0  0  0  0  0  0  0  0  0
   24.7464    9.1845    8.6779 H   0  0  0  0  0  0  0  0  0  0  0  0
   23.8606    9.4192    7.1330 H   0  0  0  0  0  0  0  0  0  0  0  0
   25.4708    8.6230    7.1330 H   0  0  0  0  0  0  0  0  0  0  0  0
   25.0802   11.2570    6.5541 H   0  0  0  0  0  0  0  0  0  0  0  0
   25.3613   11.3353    8.3474 H   0  0  0  0  0  0  0  0  0  0  0  0
   27.9557   11.5322    9.0181 H   0  0  0  0  0  0  0  0  0  0  0  0
   30.4370   14.5724    7.7993 H   0  0  0  0  0  0  0  0  0  0  0  0
   25.7333   14.1586   10.4129 H   0  0  0  0  0  0  0  0  0  0  0  0
   26.7326   15.1338   11.5473 H   0  0  0  0  0  0  0  0  0  0  0  0
   22.7189   15.3986   11.3602 H   0  0  0  0  0  0  0  0  0  0  0  0
   22.0834   15.7264   13.7519 H   0  0  0  0  0  0  0  0  0  0  0  0
   23.4265   17.2280   15.2065 H   0  0  0  0  0  0  0  0  0  0  0  0
   26.3035   16.9401   15.6391 H   0  0  0  0  0  0  0  0  0  0  0  0
   27.6072   17.9994   14.9719 H   0  0  0  0  0  0  0  0  0  0  0  0
   25.7159   18.6421   17.2769 H   0  0  0  0  0  0  0  0  0  0  0  0
   27.4778   18.3184   17.3786 H   0  0  0  0  0  0  0  0  0  0  0  0
   26.8502   21.5790   14.9801 H   0  0  0  0  0  0  0  0  0  0  0  0
   26.0781   18.0734   11.9076 H   0  0  0  0  0  0  0  0  0  0  0  0
   26.7549   17.9351    8.8988 H   0  0  0  0  0  0  0  0  0  0  0  0
   27.7548   17.3543   10.2962 H   0  0  0  0  0  0  0  0  0  0  0  0
   27.7113   16.2903    7.4364 H   0  0  0  0  0  0  0  0  0  0  0  0
   29.0911   17.0040    8.3527 H   0  0  0  0  0  0  0  0  0  0  0  0
   29.5128    9.7905    5.4010 H   0  0  0  0  0  0  0  0  0  0  0  0
  1  2  1  0
  2  3  1  0
  3  4  2  0
  4  5  1  0
  5  6  1  0
  6  7  2  0
  6  8  2  0
  6  9  1  0
  9 10  1  0
 10 11  2  0
 11 12  1  0
 12 13  2  0
 13 14  1  0
 13 15  1  0
 15 16  1  0
 16 17  1  0
 17 18  2  0
 17 19  1  0
 19 20  2  0
 20 21  1  0
 21 22  2  0
 22 23  1  0
 23 24  1  0
 24 25  1  0
 25 26  1  0
 26 27  1  0
 27 28  2  0
 27 29  1  0
 29 30  1  0
 30 31  2  0
 23 32  2  0
 16 33  1  0
 33 34  1  0
  5 35  1  0
 35 36  2  0
 36  3  1  0
 14 10  1  0
 32 19  1  0
 34 12  1  0
 30 24  1  0
  1 37  1  0
  1 38  1  0
  1 39  1  0
  2 40  1  0
  2 41  1  0
  4 42  1  0
 11 43  1  0
 15 44  1  0
 15 45  1  0
 20 46  1  0
 21 47  1  0
 22 48  1  0
 25 49  1  0
 25 50  1  0
 26 51  1  0
 26 52  1  0
 29 53  1  0
 32 54  1  0
 33 55  1  0
 33 56  1  0
 34 57  1  0
 34 58  1  0
 35 59  1  0
M  END
>  <meeko>  (126) 
{"is_sidechain": [true], "free_energy": -14.14, "intermolecular_energy": 0.0, "internal_energy": -14.14, "cluster_size": 12, "cluster_id": 1, "rank_in_cluster": 1}

>  <_RMSD_MCS_to_ref>  (126) 
0.5913404264888363

$$$$
ligand
     RDKit          3D

 61 66  0  0  0  0  0  0  0  0999 V2000
   24.8540    9.4020    7.6050 C   0  0  0  0  0  0  0  0  0  0  0  0
   25.5230   10.7550    7.4270 C   0  0  0  0  0  0  0  0  0  0  0  0
   24.9580   11.5170    6.2790 C   0  0  0  0  0  0  0  0  0  0  0  0
   25.2310   12.8080    5.8770 C   0  0  0  0  0  0  0  0  0  0  0  0
   24.4240   13.0000    4.7930 N   0  0  0  0  0  0  0  0  0  0  0  0
   24.4910   14.3160    3.7420 S   0  0  0  0  0  6  0  0  0  0  0  0
   25.8490   14.3140    3.2310 O   0  0  0  0  0  0  0  0  0  0  0  0
   23.3500   14.1370    2.8610 O   0  0  0  0  0  0  0  0  0  0  0  0
   24.2790   15.6420    4.6800 O   0  0  0  0  0  0  0  0  0  0  0  0
   25.2820   15.9530    5.5570 C   0  0  0  0  0  0  0  0  0  0  0  0
   26.5320   16.3400    5.0880 C   0  0  0  0  0  0  0  0  0  0  0  0
   27.5490   16.6800    5.9840 C   0  0  0  0  0  0  0  0  0  0  0  0
   27.2520   16.6340    7.3520 C   0  0  0  0  0  0  0  0  0  0  0  0
   28.0390   16.9330    8.4430 N   0  0  0  0  0  0  0  0  0  0  0  0
   27.3220   16.7860    9.6010 C   0  0  0  0  0  0  0  0  0  0  0  0
   26.0500   16.3700    9.2670 C   0  0  0  0  0  0  0  0  0  0  0  0
   25.0020   16.1680   10.2490 C   0  0  0  0  0  0  0  0  0  0  0  0
   23.7970   15.5400    9.8890 C   0  0  0  0  0  0  0  0  0  0  0  0
   22.7630   15.3500   10.8270 C   0  0  0  0  0  0  0  0  0  0  0  0
   22.9160   15.7830   12.1440 C   0  0  0  0  0  0  0  0  0  0  0  0
   24.1120   16.3880   12.4790 C   0  0  0  0  0  0  0  0  0  0  0  0
   25.1470   16.5860   11.5650 C   0  0  0  0  0  0  0  0  0  0  0  0
   26.2910   17.2630   12.2460 C   0  0  0  0  0  0  0  0  0  0  0  0
   25.8380   17.3680   13.6260 N   0  0  0  0  0  0  0  0  0  0  0  0
   26.5310   18.2330   14.5730 C   0  0  2  0  0  0  0  0  0  0  0  0
   26.2110   17.9240   16.0350 C   0  0  0  0  0  0  0  0  0  0  0  0
   27.0420   18.8280   16.9320 C   0  0  0  0  0  0  0  0  0  0  0  0
   26.8010   20.2850   16.6140 C   0  0  0  0  0  0  0  0  0  0  0  0
   26.9750   21.1750   17.4430 O   0  0  0  0  0  0  0  0  0  0  0  0
   26.4490   20.5860   15.3230 N   0  0  0  0  0  0  0  0  0  0  0  0
   26.2680   19.7180   14.2680 C   0  0  0  0  0  0  0  0  0  0  0  0
   25.9970   20.1540   13.1480 O   0  0  0  0  0  0  0  0  0  0  0  0
   24.5290   16.9380   13.7740 C   0  0  0  0  0  0  0  0  0  0  0  0
   23.8150   17.0120   14.7560 O   0  0  0  0  0  0  0  0  0  0  0  0
   26.0050   16.2460    7.8440 C   0  0  0  0  0  0  0  0  0  0  0  0
   25.0130   15.8550    6.9230 C   0  0  0  0  0  0  0  0  0  0  0  0
   23.7680   11.8440    4.5190 C   0  0  0  0  0  0  0  0  0  0  0  0
   24.0470   10.9290    5.4230 N   0  0  0  0  0  0  0  0  0  0  0  0
   24.7464    9.1845    8.6779 H   0  0  0  0  0  0  0  0  0  0  0  0
   23.8606    9.4192    7.1330 H   0  0  0  0  0  0  0  0  0  0  0  0
   25.4708    8.6230    7.1330 H   0  0  0  0  0  0  0  0  0  0  0  0
   25.3821   11.3431    8.3458 H   0  0  0  0  0  0  0  0  0  0  0  0
   26.5895   10.5793    7.2227 H   0  0  0  0  0  0  0  0  0  0  0  0
   25.9379   13.5204    6.3273 H   0  0  0  0  0  0  0  0  0  0  0  0
   26.7217   16.3788    4.0052 H   0  0  0  0  0  0  0  0  0  0  0  0
   28.5474   16.9734    5.6276 H   0  0  0  0  0  0  0  0  0  0  0  0
   29.0255   17.2253    8.3947 H   0  0  0  0  0  0  0  0  0  0  0  0
   27.6955   16.9680   10.6195 H   0  0  0  0  0  0  0  0  0  0  0  0
   23.6587   15.1903    8.8553 H   0  0  0  0  0  0  0  0  0  0  0  0
   21.8292   14.8571   10.5187 H   0  0  0  0  0  0  0  0  0  0  0  0
   22.1159   15.6481   12.8867 H   0  0  0  0  0  0  0  0  0  0  0  0
   27.2067   16.6575   12.1759 H   0  0  0  0  0  0  0  0  0  0  0  0
   26.5462   18.2353   11.7993 H   0  0  0  0  0  0  0  0  0  0  0  0
   27.6017   18.0208   14.4368 H   0  0  0  0  0  0  0  0  0  0  0  0
   25.1419   18.1019   16.2229 H   0  0  0  0  0  0  0  0  0  0  0  0
   26.4482   16.8717   16.2502 H   0  0  0  0  0  0  0  0  0  0  0  0
   26.7702   18.6401   17.9812 H   0  0  0  0  0  0  0  0  0  0  0  0
   28.1056   18.6057   16.7608 H   0  0  0  0  0  0  0  0  0  0  0  0
   26.3017   21.5843   15.1165 H   0  0  0  0  0  0  0  0  0  0  0  0
   24.0414   15.4783    7.2752 H   0  0  0  0  0  0  0  0  0  0  0  0
   23.0966   11.6928    3.6609 H   0  0  0  0  0  0  0  0  0  0  0  0
  1  2  1  0
  2  3  1  0
  3  4  2  0
  4  5  1  0
  5  6  1  0
  6  7  2  0
  6  8  2  0
  6  9  1  0
  9 10  1  0
 10 11  2  0
 11 12  1  0
 12 13  2  0
 13 14  1  0
 14 15  1  0
 15 16  2  0
 16 17  1  0
 17 18  2  0
 18 19  1  0
 19 20  2  0
 20 21  1  0
 21 22  2  0
 22 23  1  0
 23 24  1  0
 24 25  1  0
 25 26  1  0
 26 27  1  0
 27 28  1  0
 28 29  2  0
 28 30  1  0
 30 31  1  0
 31 32  2  0
 24 33  1  0
 33 34  2  0
 16 35  1  0
 35 36  2  0
  5 37  1  0
 37 38  2  0
 38  3  1  0
 36 10  1  0
 35 13  1  0
 22 17  1  0
 31 25  1  0
 33 21  1  0
  1 39  1  0
  1 40  1  0
  1 41  1  0
  2 42  1  0
  2 43  1  0
  4 44  1  0
 11 45  1  0
 12 46  1  0
 14 47  1  0
 15 48  1  0
 18 49  1  0
 19 50  1  0
 20 51  1  0
 23 52  1  0
 23 53  1  0
 25 54  1  1
 26 55  1  0
 26 56  1  0
 27 57  1  0
 27 58  1  0
 30 59  1  0
 36 60  1  0
 37 61  1  0
M  END
>  <meeko>  (127) 
{"is_sidechain": [true], "free_energy": -14.14, "intermolecular_energy": 0.0, "internal_energy": -14.14, "cluster_size": 8, "cluster_id": 1, "rank_in_cluster": 1}

>  <_RMSD_MCS_to_ref>  (127) 
1.0402810517675811

$$$$
ligand
     RDKit          3D

 55 59  0  0  0  0  0  0  0  0999 V2000
   24.8540    9.4020    7.6050 C   0  0  0  0  0  0  0  0  0  0  0  0
   25.5230   10.7550    7.4270 C   0  0  0  0  0  0  0  0  0  0  0  0
   26.9960   10.6850    7.6240 C   0  0  0  0  0  0  0  0  0  0  0  0
   27.8840   11.7030    7.9110 C   0  0  0  0  0  0  0  0  0  0  0  0
   29.1020   11.0860    7.9490 N   0  0  0  0  0  0  0  0  0  0  0  0
   30.5370   11.7720    8.5090 S   0  0  0  0  0  6  0  0  0  0  0  0
   31.3640   10.6370    8.8810 O   0  0  0  0  0  0  0  0  0  0  0  0
   30.9330   12.6950    7.4610 O   0  0  0  0  0  0  0  0  0  0  0  0
   30.1300   12.6120    9.8540 O   0  0  0  0  0  0  0  0  0  0  0  0
   29.4020   13.7270    9.8040 C   0  0  0  0  0  0  0  0  0  0  0  0
   29.6990   15.0520    9.5630 C   0  0  0  0  0  0  0  0  0  0  0  0
   28.4900   15.7840    9.6490 C   0  0  0  0  0  0  0  0  0  0  0  0
   27.4710   14.8960    9.9410 C   0  0  0  0  0  0  0  0  0  0  0  0
   26.0450   15.1140   10.1500 C   0  0  0  0  0  0  0  0  0  0  0  0
   25.0990   14.5670    9.2640 C   0  0  0  0  0  0  0  0  0  0  0  0
   23.7160   14.7640    9.4500 C   0  0  0  0  0  0  0  0  0  0  0  0
   23.2470   15.5090   10.5300 C   0  0  0  0  0  0  0  0  0  0  0  0
   24.1900   16.0350   11.3920 C   0  0  0  0  0  0  0  0  0  0  0  0
   25.5640   15.8560   11.2200 C   0  0  0  0  0  0  0  0  0  0  0  0
   26.2990   16.5540   12.3190 C   0  0  0  0  0  0  0  0  0  0  0  0
   25.2220   17.0520   13.1660 N   0  0  0  0  0  0  0  0  0  0  0  0
   25.4260   18.0170   14.2390 C   0  0  1  0  0  0  0  0  0  0  0  0
   26.3400   17.4840   15.3370 C   0  0  0  0  0  0  0  0  0  0  0  0
   26.4300   18.5060   16.4610 C   0  0  0  0  0  0  0  0  0  0  0  0
   26.8930   19.8480   15.9430 C   0  0  0  0  0  0  0  0  0  0  0  0
   27.6120   20.5930   16.6000 O   0  0  0  0  0  0  0  0  0  0  0  0
   26.4490   20.2110   14.6960 N   0  0  0  0  0  0  0  0  0  0  0  0
   25.9920   19.3510   13.7220 C   0  0  0  0  0  0  0  0  0  0  0  0
   26.0580   19.6680   12.5370 O   0  0  0  0  0  0  0  0  0  0  0  0
   23.9760   16.8370   12.6000 C   0  0  0  0  0  0  0  0  0  0  0  0
   22.8930   17.2180   13.0030 O   0  0  0  0  0  0  0  0  0  0  0  0
   28.0500   13.6480   10.0200 N   0  0  0  0  0  0  0  0  0  0  0  0
   28.9270    9.7500    7.7760 C   0  0  0  0  0  0  0  0  0  0  0  0
   27.6590    9.4750    7.5530 N   0  0  0  0  0  0  0  0  0  0  0  0
   24.7464    9.1845    8.6779 H   0  0  0  0  0  0  0  0  0  0  0  0
   23.8606    9.4192    7.1330 H   0  0  0  0  0  0  0  0  0  0  0  0
   25.4708    8.6230    7.1330 H   0  0  0  0  0  0  0  0  0  0  0  0
   25.3188   11.1198    6.4095 H   0  0  0  0  0  0  0  0  0  0  0  0
   25.1131   11.4365    8.1870 H   0  0  0  0  0  0  0  0  0  0  0  0
   27.6612   12.7681    8.0723 H   0  0  0  0  0  0  0  0  0  0  0  0
   30.6946   15.4652    9.3437 H   0  0  0  0  0  0  0  0  0  0  0  0
   28.3805   16.8694    9.5081 H   0  0  0  0  0  0  0  0  0  0  0  0
   25.4467   13.9720    8.4066 H   0  0  0  0  0  0  0  0  0  0  0  0
   23.0015   14.3264    8.7373 H   0  0  0  0  0  0  0  0  0  0  0  0
   22.1709   15.6716   10.6897 H   0  0  0  0  0  0  0  0  0  0  0  0
   26.9445   15.8543   12.8701 H   0  0  0  0  0  0  0  0  0  0  0  0
   26.9696   17.3475   11.9575 H   0  0  0  0  0  0  0  0  0  0  0  0
   24.4267   18.1917   14.6644 H   0  0  0  0  0  0  0  0  0  0  0  0
   25.9306   16.5417   15.7299 H   0  0  0  0  0  0  0  0  0  0  0  0
   27.3433   17.3032   14.9239 H   0  0  0  0  0  0  0  0  0  0  0  0
   25.4376   18.6218   16.9210 H   0  0  0  0  0  0  0  0  0  0  0  0
   27.1607   18.1470   17.2008 H   0  0  0  0  0  0  0  0  0  0  0  0
   26.4584   21.2155   14.4684 H   0  0  0  0  0  0  0  0  0  0  0  0
   27.5378   12.7758   10.2145 H   0  0  0  0  0  0  0  0  0  0  0  0
   29.7326    9.0021    7.8166 H   0  0  0  0  0  0  0  0  0  0  0  0
  1  2  1  0
  2  3  1  0
  3  4  2  0
  4  5  1  0
  5  6  1  0
  6  7  2  0
  6  8  2  0
  6  9  1  0
  9 10  1  0
 10 11  2  0
 11 12  1  0
 12 13  2  0
 13 14  1  0
 14 15  2  0
 15 16  1  0
 16 17  2  0
 17 18  1  0
 18 19  2  0
 19 20  1  0
 20 21  1  0
 21 22  1  0
 22 23  1  0
 23 24  1  0
 24 25  1  0
 25 26  2  0
 25 27  1  0
 27 28  1  0
 28 29  2  0
 21 30  1  0
 30 31  2  0
 13 32  1  0
  5 33  1  0
 33 34  2  0
 34  3  1  0
 32 10  1  0
 19 14  1  0
 28 22  1  0
 30 18  1  0
  1 35  1  0
  1 36  1  0
  1 37  1  0
  2 38  1  0
  2 39  1  0
  4 40  1  0
 11 41  1  0
 12 42  1  0
 15 43  1  0
 16 44  1  0
 17 45  1  0
 20 46  1  0
 20 47  1  0
 22 48  1  1
 23 49  1  0
 23 50  1  0
 24 51  1  0
 24 52  1  0
 27 53  1  0
 32 54  1  0
 33 55  1  0
M  END
>  <meeko>  (128) 
{"is_sidechain": [true], "free_energy": -14.14, "intermolecular_energy": 0.0, "internal_energy": -14.14, "cluster_size": 18, "cluster_id": 1, "rank_in_cluster": 1}

>  <_RMSD_MCS_to_ref>  (128) 
1.0052132996423084

$$$$
ligand
     RDKit          3D

 63 67  0  0  0  0  0  0  0  0999 V2000
   24.8540    9.4020    7.6050 C   0  0  0  0  0  0  0  0  0  0  0  0
   25.5230   10.7550    7.4270 C   0  0  0  0  0  0  0  0  0  0  0  0
   25.0290   11.4710    6.2190 C   0  0  0  0  0  0  0  0  0  0  0  0
   25.3500   12.7370    5.7690 C   0  0  0  0  0  0  0  0  0  0  0  0
   24.6270   12.8760    4.6190 N   0  0  0  0  0  0  0  0  0  0  0  0
   24.4650   14.2780    3.7100 S   0  0  0  0  0  6  0  0  0  0  0  0
   23.0710   14.6550    3.8440 O   0  0  0  0  0  0  0  0  0  0  0  0
   25.0750   14.0100    2.4200 O   0  0  0  0  0  0  0  0  0  0  0  0
   25.4560   15.4930    4.5280 C   0  0  0  0  0  0  0  0  0  0  0  0
   24.9360   16.7510    4.8270 C   0  0  0  0  0  0  0  0  0  0  0  0
   25.7170   17.6710    5.5360 C   0  0  0  0  0  0  0  0  0  0  0  0
   27.0160   17.3600    5.9600 C   0  0  0  0  0  0  0  0  0  0  0  0
   27.7750   18.1690    6.7980 N   0  0  0  0  0  0  0  0  0  0  0  0
   28.0810   17.8450    8.1840 C   0  0  0  0  0  0  0  0  0  0  0  0
   26.9220   17.2150    8.8280 C   0  0  0  0  0  0  0  0  0  0  0  0
   25.9040   16.7820    9.2980 C   0  0  0  0  0  0  0  0  0  0  0  0
   24.7450   16.3190    9.9930 C   0  0  0  0  0  0  0  0  0  0  0  0
   23.8630   15.4020    9.4110 C   0  0  0  0  0  0  0  0  0  0  0  0
   22.7480   14.9210   10.1270 C   0  0  0  0  0  0  0  0  0  0  0  0
   22.5050   15.3460   11.4350 C   0  0  0  0  0  0  0  0  0  0  0  0
   23.3880   16.2580   11.9820 C   0  0  0  0  0  0  0  0  0  0  0  0
   24.4880   16.7500   11.2840 C   0  0  0  0  0  0  0  0  0  0  0  0
   25.2560   17.6900   12.1480 C   0  0  0  0  0  0  0  0  0  0  0  0
   24.4430   17.7640   13.3530 N   0  0  0  0  0  0  0  0  0  0  0  0
   24.9450   18.4320   14.5540 C   0  0  1  0  0  0  0  0  0  0  0  0
   26.1320   17.7230   15.2050 C   0  0  0  0  0  0  0  0  0  0  0  0
   26.5530   18.4890   16.4500 C   0  0  0  0  0  0  0  0  0  0  0  0
   26.9050   19.9190   16.1110 C   0  0  0  0  0  0  0  0  0  0  0  0
   27.6370   20.6030   16.8220 O   0  0  0  0  0  0  0  0  0  0  0  0
   26.3070   20.4530   14.9980 N   0  0  0  0  0  0  0  0  0  0  0  0
   25.2680   19.9110   14.2760 C   0  0  0  0  0  0  0  0  0  0  0  0
   24.5920   20.6250   13.5350 O   0  0  0  0  0  0  0  0  0  0  0  0
   23.3960   16.8550   13.3240 C   0  0  0  0  0  0  0  0  0  0  0  0
   22.6240   16.5580   14.2140 O   0  0  0  0  0  0  0  0  0  0  0  0
   27.5120   16.0860    5.6430 C   0  0  0  0  0  0  0  0  0  0  0  0
   26.7490   15.1580    4.9290 C   0  0  0  0  0  0  0  0  0  0  0  0
   23.8830   11.7570    4.4220 C   0  0  0  0  0  0  0  0  0  0  0  0
   24.1080   10.8800    5.3770 N   0  0  0  0  0  0  0  0  0  0  0  0
   24.7464    9.1845    8.6779 H   0  0  0  0  0  0  0  0  0  0  0  0
   23.8606    9.4192    7.1330 H   0  0  0  0  0  0  0  0  0  0  0  0
   25.4708    8.6230    7.1330 H   0  0  0  0  0  0  0  0  0  0  0  0
   25.3164   11.3720    8.3139 H   0  0  0  0  0  0  0  0  0  0  0  0
   26.6024   10.5845    7.3011 H   0  0  0  0  0  0  0  0  0  0  0  0
   26.0318   13.4661    6.2312 H   0  0  0  0  0  0  0  0  0  0  0  0
   23.9181   17.0192    4.5078 H   0  0  0  0  0  0  0  0  0  0  0  0
   25.3008   18.6629    5.7661 H   0  0  0  0  0  0  0  0  0  0  0  0
   28.1433   19.0514    6.4150 H   0  0  0  0  0  0  0  0  0  0  0  0
   28.9344   17.1517    8.2146 H   0  0  0  0  0  0  0  0  0  0  0  0
   28.3290   18.7720    8.7217 H   0  0  0  0  0  0  0  0  0  0  0  0
   24.0416   15.0525    8.3834 H   0  0  0  0  0  0  0  0  0  0  0  0
   22.0628   14.2041    9.6510 H   0  0  0  0  0  0  0  0  0  0  0  0
   21.6445   14.9696   12.0076 H   0  0  0  0  0  0  0  0  0  0  0  0
   26.2578   17.2939   12.3705 H   0  0  0  0  0  0  0  0  0  0  0  0
   25.4262   18.6701   11.6786 H   0  0  0  0  0  0  0  0  0  0  0  0
   24.1260   18.3806   15.2865 H   0  0  0  0  0  0  0  0  0  0  0  0
   25.8409   16.6995   15.4840 H   0  0  0  0  0  0  0  0  0  0  0  0
   26.9716   17.6823   14.4955 H   0  0  0  0  0  0  0  0  0  0  0  0
   25.7242   18.4840   17.1732 H   0  0  0  0  0  0  0  0  0  0  0  0
   27.4407   18.0011   16.8790 H   0  0  0  0  0  0  0  0  0  0  0  0
   26.6749   21.3564   14.6671 H   0  0  0  0  0  0  0  0  0  0  0  0
   28.5273   15.8108    5.9647 H   0  0  0  0  0  0  0  0  0  0  0  0
   27.1657   14.1697    4.6849 H   0  0  0  0  0  0  0  0  0  0  0  0
   23.1895   11.6050    3.5818 H   0  0  0  0  0  0  0  0  0  0  0  0
  1  2  1  0
  2  3  1  0
  3  4  2  0
  4  5  1  0
  5  6  1  0
  6  7  2  0
  6  8  2  0
  6  9  1  0
  9 10  2  0
 10 11  1  0
 11 12  2  0
 12 13  1  0
 13 14  1  0
 14 15  1  0
 15 16  3  0
 16 17  1  0
 17 18  2  0
 18 19  1  0
 19 20  2  0
 20 21  1  0
 21 22  2  0
 22 23  1  0
 23 24  1  0
 24 25  1  0
 25 26  1  0
 26 27  1  0
 27 28  1  0
 28 29  2  0
 28 30  1  0
 30 31  1  0
 31 32  2  0
 24 33  1  0
 33 34  2  0
 12 35  1  0
 35 36  2  0
  5 37  1  0
 37 38  2  0
 38  3  1  0
 36  9  1  0
 22 17  1  0
 31 25  1  0
 33 21  1  0
  1 39  1  0
  1 40  1  0
  1 41  1  0
  2 42  1  0
  2 43  1  0
  4 44  1  0
 10 45  1  0
 11 46  1  0
 13 47  1  0
 14 48  1  0
 14 49  1  0
 18 50  1  0
 19 51  1  0
 20 52  1  0
 23 53  1  0
 23 54  1  0
 25 55  1  1
 26 56  1  0
 26 57  1  0
 27 58  1  0
 27 59  1  0
 30 60  1  0
 35 61  1  0
 36 62  1  0
 37 63  1  0
M  END
>  <meeko>  (129) 
{"is_sidechain": [true], "free_energy": -14.13, "intermolecular_energy": 0.0, "internal_energy": -14.13, "cluster_size": 6, "cluster_id": 2, "rank_in_cluster": 1}

>  <_RMSD_MCS_to_ref>  (129) 
0.39090464878847964

$$$$
ligand
     RDKit          3D

 62 66  0  0  0  0  0  0  0  0999 V2000
   24.8540    9.4020    7.6050 C   0  0  0  0  0  0  0  0  0  0  0  0
   25.5230   10.7550    7.4270 C   0  0  0  0  0  0  0  0  0  0  0  0
   25.0320   11.4700    6.2180 C   0  0  0  0  0  0  0  0  0  0  0  0
   25.3890   12.7150    5.7400 C   0  0  0  0  0  0  0  0  0  0  0  0
   24.6470   12.8620    4.6010 N   0  0  0  0  0  0  0  0  0  0  0  0
   24.5410   14.2620    3.6800 S   0  0  0  0  0  6  0  0  0  0  0  0
   23.1290   14.6000    3.6140 O   0  0  0  0  0  0  0  0  0  0  0  0
   25.3200   13.9850    2.4890 O   0  0  0  0  0  0  0  0  0  0  0  0
   25.3750   15.5470    4.5720 C   0  0  0  0  0  0  0  0  0  0  0  0
   24.7050   16.6470    5.1130 C   0  0  0  0  0  0  0  0  0  0  0  0
   25.4220   17.6210    5.8180 C   0  0  0  0  0  0  0  0  0  0  0  0
   26.8040   17.5070    5.9800 C   0  0  0  0  0  0  0  0  0  0  0  0
   27.6220   18.3920    6.6250 O   0  0  0  0  0  0  0  0  0  0  0  0
   28.0070   18.1230    7.9780 C   0  0  0  0  0  0  0  0  0  0  0  0
   26.8960   17.5390    8.7400 C   0  0  0  0  0  0  0  0  0  0  0  0
   25.9660   17.0120    9.2870 C   0  0  0  0  0  0  0  0  0  0  0  0
   24.8750   16.4690   10.0290 C   0  0  0  0  0  0  0  0  0  0  0  0
   24.0480   15.4770    9.4880 C   0  0  0  0  0  0  0  0  0  0  0  0
   22.9700   14.9520   10.2300 C   0  0  0  0  0  0  0  0  0  0  0  0
   22.7060   15.4120   11.5220 C   0  0  0  0  0  0  0  0  0  0  0  0
   23.5370   16.3940   12.0290 C   0  0  0  0  0  0  0  0  0  0  0  0
   24.6070   16.9200   11.3100 C   0  0  0  0  0  0  0  0  0  0  0  0
   25.3170   17.9490   12.1260 C   0  0  0  0  0  0  0  0  0  0  0  0
   24.5300   17.9810   13.3520 N   0  0  0  0  0  0  0  0  0  0  0  0
   24.9540   18.6750   14.5650 C   0  0  1  0  0  0  0  0  0  0  0  0
   26.0900   17.9120   15.2490 C   0  0  0  0  0  0  0  0  0  0  0  0
   26.4620   18.6000   16.5500 C   0  0  0  0  0  0  0  0  0  0  0  0
   26.8600   20.0340   16.3050 C   0  0  0  0  0  0  0  0  0  0  0  0
   27.7210   20.5970   16.9760 O   0  0  0  0  0  0  0  0  0  0  0  0
   26.1810   20.6900   15.3100 N   0  0  0  0  0  0  0  0  0  0  0  0
   25.3660   20.1410   14.3450 C   0  0  0  0  0  0  0  0  0  0  0  0
   24.9800   20.8270   13.3980 O   0  0  0  0  0  0  0  0  0  0  0  0
   23.5080   17.0440   13.3440 C   0  0  0  0  0  0  0  0  0  0  0  0
   22.7450   16.7640   14.2480 O   0  0  0  0  0  0  0  0  0  0  0  0
   27.4640   16.4010    5.4340 C   0  0  0  0  0  0  0  0  0  0  0  0
   26.7570   15.4220    4.7330 C   0  0  0  0  0  0  0  0  0  0  0  0
   23.8590   11.7690    4.4380 C   0  0  0  0  0  0  0  0  0  0  0  0
   24.0730   10.9000    5.4050 N   0  0  0  0  0  0  0  0  0  0  0  0
   24.7464    9.1845    8.6779 H   0  0  0  0  0  0  0  0  0  0  0  0
   23.8606    9.4192    7.1330 H   0  0  0  0  0  0  0  0  0  0  0  0
   25.4708    8.6230    7.1330 H   0  0  0  0  0  0  0  0  0  0  0  0
   25.3144   11.3727    8.3130 H   0  0  0  0  0  0  0  0  0  0  0  0
   26.6026   10.5843    7.3032 H   0  0  0  0  0  0  0  0  0  0  0  0
   26.1063   13.4260    6.1758 H   0  0  0  0  0  0  0  0  0  0  0  0
   23.6171   16.7475    4.9854 H   0  0  0  0  0  0  0  0  0  0  0  0
   24.8919   18.4836    6.2480 H   0  0  0  0  0  0  0  0  0  0  0  0
   28.8514   17.4180    7.9774 H   0  0  0  0  0  0  0  0  0  0  0  0
   28.2947   19.0722    8.4536 H   0  0  0  0  0  0  0  0  0  0  0  0
   24.2416   15.1027    8.4719 H   0  0  0  0  0  0  0  0  0  0  0  0
   22.3314   14.1734    9.7874 H   0  0  0  0  0  0  0  0  0  0  0  0
   21.8702   15.0091   12.1128 H   0  0  0  0  0  0  0  0  0  0  0  0
   26.3555   17.6480   12.3285 H   0  0  0  0  0  0  0  0  0  0  0  0
   25.3914   18.9271   11.6282 H   0  0  0  0  0  0  0  0  0  0  0  0
   24.0663   18.7011   15.2141 H   0  0  0  0  0  0  0  0  0  0  0  0
   25.7633   16.8832   15.4605 H   0  0  0  0  0  0  0  0  0  0  0  0
   26.9665   17.8936   14.5846 H   0  0  0  0  0  0  0  0  0  0  0  0
   25.5974   18.5772   17.2297 H   0  0  0  0  0  0  0  0  0  0  0  0
   27.3157   18.0694   16.9969 H   0  0  0  0  0  0  0  0  0  0  0  0
   26.2939   21.7134   15.2811 H   0  0  0  0  0  0  0  0  0  0  0  0
   28.5524   16.3014    5.5583 H   0  0  0  0  0  0  0  0  0  0  0  0
   27.2862   14.5558    4.3092 H   0  0  0  0  0  0  0  0  0  0  0  0
   23.1429   11.6285    3.6149 H   0  0  0  0  0  0  0  0  0  0  0  0
  1  2  1  0
  2  3  1  0
  3  4  2  0
  4  5  1  0
  5  6  1  0
  6  7  2  0
  6  8  2  0
  6  9  1  0
  9 10  2  0
 10 11  1  0
 11 12  2  0
 12 13  1  0
 13 14  1  0
 14 15  1  0
 15 16  3  0
 16 17  1  0
 17 18  2  0
 18 19  1  0
 19 20  2  0
 20 21  1  0
 21 22  2  0
 22 23  1  0
 23 24  1  0
 24 25  1  0
 25 26  1  0
 26 27  1  0
 27 28  1  0
 28 29  2  0
 28 30  1  0
 30 31  1  0
 31 32  2  0
 24 33  1  0
 33 34  2  0
 12 35  1  0
 35 36  2  0
  5 37  1  0
 37 38  2  0
 38  3  1  0
 36  9  1  0
 22 17  1  0
 31 25  1  0
 33 21  1  0
  1 39  1  0
  1 40  1  0
  1 41  1  0
  2 42  1  0
  2 43  1  0
  4 44  1  0
 10 45  1  0
 11 46  1  0
 14 47  1  0
 14 48  1  0
 18 49  1  0
 19 50  1  0
 20 51  1  0
 23 52  1  0
 23 53  1  0
 25 54  1  1
 26 55  1  0
 26 56  1  0
 27 57  1  0
 27 58  1  0
 30 59  1  0
 35 60  1  0
 36 61  1  0
 37 62  1  0
M  END
>  <meeko>  (130) 
{"is_sidechain": [true], "free_energy": -14.13, "intermolecular_energy": 0.0, "internal_energy": -14.13, "cluster_size": 10, "cluster_id": 1, "rank_in_cluster": 1}

>  <_RMSD_MCS_to_ref>  (130) 
0.40339228219356565

$$$$
ligand
     RDKit          3D

 60 65  0  0  0  0  0  0  0  0999 V2000
   24.8540    9.4020    7.6050 C   0  0  0  0  0  0  0  0  0  0  0  0
   25.5230   10.7550    7.4270 C   0  0  0  0  0  0  0  0  0  0  0  0
   25.0760   11.4410    6.1840 C   0  0  0  0  0  0  0  0  0  0  0  0
   25.8420   12.0180    5.1890 C   0  0  0  0  0  0  0  0  0  0  0  0
   24.9240   12.5180    4.3080 N   0  0  0  0  0  0  0  0  0  0  0  0
   25.2620   13.5410    3.0170 S   0  0  0  0  0  6  0  0  0  0  0  0
   24.2440   13.2750    2.0200 O   0  0  0  0  0  0  0  0  0  0  0  0
   26.6770   13.3560    2.7550 O   0  0  0  0  0  0  0  0  0  0  0  0
   25.0370   15.1860    3.5880 C   0  0  0  0  0  0  0  0  0  0  0  0
   24.9880   16.2300    2.6460 C   0  0  0  0  0  0  0  0  0  0  0  0
   24.8290   17.5630    3.0460 C   0  0  0  0  0  0  0  0  0  0  0  0
   24.7180   17.9030    4.4030 C   0  0  0  0  0  0  0  0  0  0  0  0
   24.7670   16.8720    5.3500 C   0  0  0  0  0  0  0  0  0  0  0  0
   24.6980   16.9010    6.7210 N   0  0  0  0  0  0  0  0  0  0  0  0
   24.8040   15.6370    7.0770 C   0  0  0  0  0  0  0  0  0  0  0  0
   24.8290   15.0270    8.2720 N   0  0  0  0  0  0  0  0  0  0  0  0
   24.5350   15.5530    9.5430 C   0  0  0  0  0  0  0  0  0  0  0  0
   23.3030   15.1830   10.1450 C   0  0  0  0  0  0  0  0  0  0  0  0
   22.9240   15.6580   11.4040 C   0  0  0  0  0  0  0  0  0  0  0  0
   23.7950   16.5130   12.0440 C   0  0  0  0  0  0  0  0  0  0  0  0
   25.0080   16.8980   11.4850 C   0  0  0  0  0  0  0  0  0  0  0  0
   25.3880   16.4270   10.2370 C   0  0  0  0  0  0  0  0  0  0  0  0
   25.7350   17.8020   12.4190 C   0  0  0  0  0  0  0  0  0  0  0  0
   24.7760   17.9830   13.5010 N   0  0  0  0  0  0  0  0  0  0  0  0
   25.1540   18.6370   14.7500 C   0  0  1  0  0  0  0  0  0  0  0  0
   26.2690   17.9170   15.5070 C   0  0  0  0  0  0  0  0  0  0  0  0
   26.5400   18.6430   16.8150 C   0  0  0  0  0  0  0  0  0  0  0  0
   26.8870   20.0940   16.5760 C   0  0  0  0  0  0  0  0  0  0  0  0
   27.5290   20.7550   17.3870 O   0  0  0  0  0  0  0  0  0  0  0  0
   26.3780   20.6700   15.4390 N   0  0  0  0  0  0  0  0  0  0  0  0
   25.5220   20.1100   14.5180 C   0  0  0  0  0  0  0  0  0  0  0  0
   25.0180   20.8070   13.6370 O   0  0  0  0  0  0  0  0  0  0  0  0
   23.6690   17.1590   13.3550 C   0  0  0  0  0  0  0  0  0  0  0  0
   22.7600   16.9660   14.1370 O   0  0  0  0  0  0  0  0  0  0  0  0
   24.9240   14.7760    6.0220 O   0  0  0  0  0  0  0  0  0  0  0  0
   24.9160   15.5670    4.9170 C   0  0  0  0  0  0  0  0  0  0  0  0
   23.6740   12.2420    4.7630 C   0  0  0  0  0  0  0  0  0  0  0  0
   23.7310   11.5970    5.9100 N   0  0  0  0  0  0  0  0  0  0  0  0
   24.7464    9.1845    8.6779 H   0  0  0  0  0  0  0  0  0  0  0  0
   23.8606    9.4192    7.1330 H   0  0  0  0  0  0  0  0  0  0  0  0
   25.4708    8.6230    7.1330 H   0  0  0  0  0  0  0  0  0  0  0  0
   25.2757   11.3894    8.2909 H   0  0  0  0  0  0  0  0  0  0  0  0
   26.6078   10.5893    7.3513 H   0  0  0  0  0  0  0  0  0  0  0  0
   26.9389   12.0643    5.1214 H   0  0  0  0  0  0  0  0  0  0  0  0
   25.0762   15.9949    1.5750 H   0  0  0  0  0  0  0  0  0  0  0  0
   24.7905   18.3558    2.2844 H   0  0  0  0  0  0  0  0  0  0  0  0
   24.5958   18.9508    4.7146 H   0  0  0  0  0  0  0  0  0  0  0  0
   25.1019   14.0339    8.2563 H   0  0  0  0  0  0  0  0  0  0  0  0
   22.6276   14.5031    9.6051 H   0  0  0  0  0  0  0  0  0  0  0  0
   21.9701   15.3616   11.8647 H   0  0  0  0  0  0  0  0  0  0  0  0
   26.3473   16.7347    9.7953 H   0  0  0  0  0  0  0  0  0  0  0  0
   26.6610   17.3337   12.7839 H   0  0  0  0  0  0  0  0  0  0  0  0
   26.0517   18.7471   11.9538 H   0  0  0  0  0  0  0  0  0  0  0  0
   24.2621   18.5871   15.3919 H   0  0  0  0  0  0  0  0  0  0  0  0
   25.9607   16.8824   15.7183 H   0  0  0  0  0  0  0  0  0  0  0  0
   27.1830   17.9080   14.8950 H   0  0  0  0  0  0  0  0  0  0  0  0
   25.6417   18.5889   17.4476 H   0  0  0  0  0  0  0  0  0  0  0  0
   27.3945   18.1587   17.3102 H   0  0  0  0  0  0  0  0  0  0  0  0
   26.6724   21.6392   15.2522 H   0  0  0  0  0  0  0  0  0  0  0  0
   22.7436   12.5187    4.2455 H   0  0  0  0  0  0  0  0  0  0  0  0
  1  2  1  0
  2  3  1  0
  3  4  2  0
  4  5  1  0
  5  6  1  0
  6  7  2  0
  6  8  2  0
  6  9  1  0
  9 10  2  0
 10 11  1  0
 11 12  2  0
 12 13  1  0
 13 14  1  0
 14 15  2  0
 15 16  1  0
 16 17  1  0
 17 18  2  0
 18 19  1  0
 19 20  2  0
 20 21  1  0
 21 22  2  0
 21 23  1  0
 23 24  1  0
 24 25  1  0
 25 26  1  0
 26 27  1  0
 27 28  1  0
 28 29  2  0
 28 30  1  0
 30 31  1  0
 31 32  2  0
 24 33  1  0
 33 34  2  0
 15 35  1  0
 35 36  1  0
  5 37  1  0
 37 38  2  0
 38  3  1  0
 36  9  1  0
 36 13  2  0
 22 17  1  0
 31 25  1  0
 33 20  1  0
  1 39  1  0
  1 40  1  0
  1 41  1  0
  2 42  1  0
  2 43  1  0
  4 44  1  0
 10 45  1  0
 11 46  1  0
 12 47  1  0
 16 48  1  0
 18 49  1  0
 19 50  1  0
 22 51  1  0
 23 52  1  0
 23 53  1  0
 25 54  1  1
 26 55  1  0
 26 56  1  0
 27 57  1  0
 27 58  1  0
 30 59  1  0
 37 60  1  0
M  END
>  <meeko>  (131) 
{"is_sidechain": [true], "free_energy": -14.13, "intermolecular_energy": 0.0, "internal_energy": -14.13, "cluster_size": 20, "cluster_id": 1, "rank_in_cluster": 1}

>  <_RMSD_MCS_to_ref>  (131) 
0.39803629091941894

$$$$
ligand
     RDKit          3D

 53 57  0  0  0  0  0  0  0  0999 V2000
   24.8540    9.4020    7.6050 C   0  0  0  0  0  0  0  0  0  0  0  0
   25.5230   10.7550    7.4270 C   0  0  0  0  0  0  0  0  0  0  0  0
   26.9840   10.6990    7.7030 C   0  0  0  0  0  0  0  0  0  0  0  0
   27.8000   11.6860    8.2210 C   0  0  0  0  0  0  0  0  0  0  0  0
   29.0440   11.1350    8.1950 N   0  0  0  0  0  0  0  0  0  0  0  0
   30.4960   11.8820    8.6110 S   0  0  0  0  0  6  0  0  0  0  0  0
   31.4360   10.8110    8.8960 O   0  0  0  0  0  0  0  0  0  0  0  0
   30.7340   12.8000    7.5110 O   0  0  0  0  0  0  0  0  0  0  0  0
   30.2620   12.7750    9.9480 O   0  0  0  0  0  0  0  0  0  0  0  0
   29.4490   13.8180    9.9380 C   0  0  0  0  0  0  0  0  0  0  0  0
   28.1560   13.7240   10.1280 N   0  0  0  0  0  0  0  0  0  0  0  0
   27.5630   14.9690    9.9980 C   0  0  0  0  0  0  0  0  0  0  0  0
   26.1260   15.1320   10.1570 C   0  0  0  0  0  0  0  0  0  0  0  0
   25.2100   14.4740    9.3150 C   0  0  0  0  0  0  0  0  0  0  0  0
   23.8190   14.6190    9.4880 C   0  0  0  0  0  0  0  0  0  0  0  0
   23.3120   15.4250   10.5050 C   0  0  0  0  0  0  0  0  0  0  0  0
   24.2250   16.0660   11.3190 C   0  0  0  0  0  0  0  0  0  0  0  0
   25.6050   15.9320   11.1670 C   0  0  0  0  0  0  0  0  0  0  0  0
   26.3020   16.7340   12.2170 C   0  0  0  0  0  0  0  0  0  0  0  0
   25.2040   17.4070   12.8970 N   0  0  0  0  0  0  0  0  0  0  0  0
   25.4190   18.1230   14.1490 C   0  0  1  0  0  0  0  0  0  0  0  0
   26.5760   17.5690   14.9790 C   0  0  0  0  0  0  0  0  0  0  0  0
   26.6730   18.3390   16.2870 C   0  0  0  0  0  0  0  0  0  0  0  0
   26.8370   19.8200   16.0380 C   0  0  0  0  0  0  0  0  0  0  0  0
   27.3600   20.5680   16.8600 O   0  0  0  0  0  0  0  0  0  0  0  0
   26.3010   20.3140   14.8750 N   0  0  0  0  0  0  0  0  0  0  0  0
   25.6040   19.6300   13.9060 C   0  0  0  0  0  0  0  0  0  0  0  0
   25.0880   20.2380   12.9680 O   0  0  0  0  0  0  0  0  0  0  0  0
   23.9700   16.9590   12.4560 C   0  0  0  0  0  0  0  0  0  0  0  0
   22.8680   17.2120   12.9000 O   0  0  0  0  0  0  0  0  0  0  0  0
   28.4400   16.0020    9.7310 C   0  0  0  0  0  0  0  0  0  0  0  0
   30.0410   15.3930    9.6280 S   0  0  0  0  0  0  0  0  0  0  0  0
   28.9580    9.8500    7.7680 C   0  0  0  0  0  0  0  0  0  0  0  0
   27.7180    9.5570    7.4360 N   0  0  0  0  0  0  0  0  0  0  0  0
   24.7464    9.1845    8.6779 H   0  0  0  0  0  0  0  0  0  0  0  0
   23.8606    9.4192    7.1330 H   0  0  0  0  0  0  0  0  0  0  0  0
   25.4708    8.6230    7.1330 H   0  0  0  0  0  0  0  0  0  0  0  0
   25.3706   11.0922    6.3911 H   0  0  0  0  0  0  0  0  0  0  0  0
   25.0696   11.4536    8.1456 H   0  0  0  0  0  0  0  0  0  0  0  0
   27.5107   12.6871    8.5734 H   0  0  0  0  0  0  0  0  0  0  0  0
   25.5879   13.8330    8.5048 H   0  0  0  0  0  0  0  0  0  0  0  0
   23.1277   14.0914    8.8144 H   0  0  0  0  0  0  0  0  0  0  0  0
   22.2288   15.5458   10.6535 H   0  0  0  0  0  0  0  0  0  0  0  0
   26.8561   16.0829   12.9091 H   0  0  0  0  0  0  0  0  0  0  0  0
   27.0494   17.4291   11.8070 H   0  0  0  0  0  0  0  0  0  0  0  0
   24.5056   17.9648   14.7412 H   0  0  0  0  0  0  0  0  0  0  0  0
   26.3982   16.5046   15.1920 H   0  0  0  0  0  0  0  0  0  0  0  0
   27.5159   17.6776   14.4179 H   0  0  0  0  0  0  0  0  0  0  0  0
   25.7553   18.1726   16.8702 H   0  0  0  0  0  0  0  0  0  0  0  0
   27.5538   17.9788   16.8388 H   0  0  0  0  0  0  0  0  0  0  0  0
   26.4374   21.3210   14.7070 H   0  0  0  0  0  0  0  0  0  0  0  0
   28.1550   17.0568    9.6035 H   0  0  0  0  0  0  0  0  0  0  0  0
   29.8053    9.1511    7.7077 H   0  0  0  0  0  0  0  0  0  0  0  0
  1  2  1  0
  2  3  1  0
  3  4  2  0
  4  5  1  0
  5  6  1  0
  6  7  2  0
  6  8  2  0
  6  9  1  0
  9 10  1  0
 10 11  2  0
 11 12  1  0
 12 13  1  0
 13 14  2  0
 14 15  1  0
 15 16  2  0
 16 17  1  0
 17 18  2  0
 18 19  1  0
 19 20  1  0
 20 21  1  0
 21 22  1  0
 22 23  1  0
 23 24  1  0
 24 25  2  0
 24 26  1  0
 26 27  1  0
 27 28  2  0
 20 29  1  0
 29 30  2  0
 12 31  2  0
 31 32  1  0
  5 33  1  0
 33 34  2  0
 34  3  1  0
 32 10  1  0
 18 13  1  0
 27 21  1  0
 29 17  1  0
  1 35  1  0
  1 36  1  0
  1 37  1  0
  2 38  1  0
  2 39  1  0
  4 40  1  0
 14 41  1  0
 15 42  1  0
 16 43  1  0
 19 44  1  0
 19 45  1  0
 21 46  1  1
 22 47  1  0
 22 48  1  0
 23 49  1  0
 23 50  1  0
 26 51  1  0
 31 52  1  0
 33 53  1  0
M  END
>  <meeko>  (132) 
{"is_sidechain": [true], "free_energy": -14.12, "intermolecular_energy": 0.0, "internal_energy": -14.12, "cluster_size": 17, "cluster_id": 1, "rank_in_cluster": 1}

>  <_RMSD_MCS_to_ref>  (132) 
0.718730671237688

$$$$
ligand
     RDKit          3D

 61 65  0  0  0  0  0  0  0  0999 V2000
   24.8540    9.4020    7.6050 C   0  0  0  0  0  0  0  0  0  0  0  0
   25.5230   10.7550    7.4270 C   0  0  0  0  0  0  0  0  0  0  0  0
   27.0070   10.6470    7.3760 C   0  0  0  0  0  0  0  0  0  0  0  0
   27.9190   11.4900    6.7740 C   0  0  0  0  0  0  0  0  0  0  0  0
   29.1300   10.9230    7.0490 N   0  0  0  0  0  0  0  0  0  0  0  0
   30.6100   11.4320    6.4390 S   0  0  0  0  0  6  0  0  0  0  0  0
   31.4340   10.2390    6.4140 O   0  0  0  0  0  0  0  0  0  0  0  0
   30.3200   12.1920    5.2390 O   0  0  0  0  0  0  0  0  0  0  0  0
   31.2360   12.5290    7.6790 C   0  0  0  0  0  0  0  0  0  0  0  0
   32.6060   12.4970    7.9820 C   0  0  0  0  0  0  0  0  0  0  0  0
   33.1320   13.3350    8.9740 C   0  0  0  0  0  0  0  0  0  0  0  0
   32.3010   14.2200    9.6630 C   0  0  0  0  0  0  0  0  0  0  0  0
   30.9590   14.2710    9.3260 C   0  0  0  0  0  0  0  0  0  0  0  0
   30.4200   13.4310    8.3500 C   0  0  0  0  0  0  0  0  0  0  0  0
   28.9530   13.6920    8.2480 C   0  0  0  0  0  0  0  0  0  0  0  0
   28.8060   14.9850    9.0740 C   0  0  1  0  0  0  0  0  0  0  0  0
   27.4980   14.9460    9.8790 C   0  0  0  0  0  0  0  0  0  0  0  0
   26.8940   13.8920   10.0540 O   0  0  0  0  0  0  0  0  0  0  0  0
   27.1690   16.1900   10.3890 N   0  0  0  0  0  0  0  0  0  0  0  0
   26.0790   16.5480   11.1970 C   0  0  0  0  0  0  0  0  0  0  0  0
   24.8100   16.1390   10.7760 C   0  0  0  0  0  0  0  0  0  0  0  0
   23.6760   16.4640   11.5210 C   0  0  0  0  0  0  0  0  0  0  0  0
   23.8000   17.2020   12.6970 C   0  0  0  0  0  0  0  0  0  0  0  0
   25.0620   17.6140   13.1460 C   0  0  0  0  0  0  0  0  0  0  0  0
   25.2310   18.4470   14.4070 C   0  0  1  0  0  0  0  0  0  0  0  0
   26.3020   17.8190   15.3060 C   0  0  0  0  0  0  0  0  0  0  0  0
   26.4200   18.6130   16.5970 C   0  0  0  0  0  0  0  0  0  0  0  0
   26.7320   20.0600   16.3160 C   0  0  0  0  0  0  0  0  0  0  0  0
   27.3190   20.7760   17.1230 O   0  0  0  0  0  0  0  0  0  0  0  0
   26.2710   20.5650   15.1270 N   0  0  0  0  0  0  0  0  0  0  0  0
   25.5560   19.9180   14.1440 C   0  0  0  0  0  0  0  0  0  0  0  0
   25.1760   20.5450   13.1590 O   0  0  0  0  0  0  0  0  0  0  0  0
   26.1950   17.2850   12.3790 C   0  0  0  0  0  0  0  0  0  0  0  0
   29.9960   15.0780    9.9810 N   0  0  0  0  0  0  0  0  0  0  0  0
   28.9390    9.7880    7.7670 C   0  0  0  0  0  0  0  0  0  0  0  0
   27.6550    9.5880    7.9810 N   0  0  0  0  0  0  0  0  0  0  0  0
   24.7464    9.1845    8.6779 H   0  0  0  0  0  0  0  0  0  0  0  0
   23.8606    9.4192    7.1330 H   0  0  0  0  0  0  0  0  0  0  0  0
   25.4708    8.6230    7.1330 H   0  0  0  0  0  0  0  0  0  0  0  0
   25.1682   11.2047    6.4879 H   0  0  0  0  0  0  0  0  0  0  0  0
   25.2597   11.3783    8.2943 H   0  0  0  0  0  0  0  0  0  0  0  0
   27.7165   12.4083    6.2034 H   0  0  0  0  0  0  0  0  0  0  0  0
   33.2706   11.8101    7.4375 H   0  0  0  0  0  0  0  0  0  0  0  0
   34.2054   13.2953    9.2111 H   0  0  0  0  0  0  0  0  0  0  0  0
   32.7044   14.8643   10.4581 H   0  0  0  0  0  0  0  0  0  0  0  0
   28.6452   13.8466    7.2033 H   0  0  0  0  0  0  0  0  0  0  0  0
   28.3264   12.8613    8.6047 H   0  0  0  0  0  0  0  0  0  0  0  0
   28.7643   15.8689    8.4205 H   0  0  0  0  0  0  0  0  0  0  0  0
   27.8111   16.9566   10.1420 H   0  0  0  0  0  0  0  0  0  0  0  0
   24.7048   15.5559    9.8493 H   0  0  0  0  0  0  0  0  0  0  0  0
   22.6826   16.1373   11.1798 H   0  0  0  0  0  0  0  0  0  0  0  0
   22.9018   17.4626   13.2761 H   0  0  0  0  0  0  0  0  0  0  0  0
   24.2544   18.4416   14.9132 H   0  0  0  0  0  0  0  0  0  0  0  0
   26.0205   16.7816   15.5396 H   0  0  0  0  0  0  0  0  0  0  0  0
   27.2691   17.8312   14.7821 H   0  0  0  0  0  0  0  0  0  0  0  0
   25.4687   18.5504   17.1457 H   0  0  0  0  0  0  0  0  0  0  0  0
   27.2395   18.1882   17.1953 H   0  0  0  0  0  0  0  0  0  0  0  0
   26.4875   21.5556   14.9461 H   0  0  0  0  0  0  0  0  0  0  0  0
   27.1894   17.6136   12.7155 H   0  0  0  0  0  0  0  0  0  0  0  0
   30.0904   15.6003   10.8637 H   0  0  0  0  0  0  0  0  0  0  0  0
   29.7440    9.1271    8.1210 H   0  0  0  0  0  0  0  0  0  0  0  0
  1  2  1  0
  2  3  1  0
  3  4  2  0
  4  5  1  0
  5  6  1  0
  6  7  2  0
  6  8  2  0
  6  9  1  0
  9 10  2  0
 10 11  1  0
 11 12  2  0
 12 13  1  0
 13 14  2  0
 14 15  1  0
 15 16  1  0
 16 17  1  0
 17 18  2  0
 17 19  1  0
 19 20  1  0
 20 21  2  0
 21 22  1  0
 22 23  2  0
 23 24  1  0
 24 25  1  0
 25 26  1  0
 26 27  1  0
 27 28  1  0
 28 29  2  0
 28 30  1  0
 30 31  1  0
 31 32  2  0
 24 33  2  0
 16 34  1  0
  5 35  1  0
 35 36  2  0
 36  3  1  0
 14  9  1  0
 33 20  1  0
 34 13  1  0
 31 25  1  0
  1 37  1  0
  1 38  1  0
  1 39  1  0
  2 40  1  0
  2 41  1  0
  4 42  1  0
 10 43  1  0
 11 44  1  0
 12 45  1  0
 15 46  1  0
 15 47  1  0
 16 48  1  6
 19 49  1  0
 21 50  1  0
 22 51  1  0
 23 52  1  0
 25 53  1  1
 26 54  1  0
 26 55  1  0
 27 56  1  0
 27 57  1  0
 30 58  1  0
 33 59  1  0
 34 60  1  0
 35 61  1  0
M  END
>  <meeko>  (133) 
{"is_sidechain": [true], "free_energy": -14.12, "intermolecular_energy": 0.0, "internal_energy": -14.12, "cluster_size": 14, "cluster_id": 1, "rank_in_cluster": 1}

>  <_RMSD_MCS_to_ref>  (133) 
0.49779325527772983

$$$$
ligand
     RDKit          3D

 60 65  0  0  0  0  0  0  0  0999 V2000
   24.8540    9.4020    7.6050 C   0  0  0  0  0  0  0  0  0  0  0  0
   25.5230   10.7550    7.4270 C   0  0  0  0  0  0  0  0  0  0  0  0
   24.7770   11.6320    6.4840 C   0  0  0  0  0  0  0  0  0  0  0  0
   25.2170   12.2300    5.3190 C   0  0  0  0  0  0  0  0  0  0  0  0
   24.1190   12.8900    4.8460 N   0  0  0  0  0  0  0  0  0  0  0  0
   24.1110   14.0040    3.5800 S   0  0  0  0  0  6  0  0  0  0  0  0
   22.7100   14.3230    3.3800 O   0  0  0  0  0  0  0  0  0  0  0  0
   24.9050   13.3800    2.5370 O   0  0  0  0  0  0  0  0  0  0  0  0
   24.8910   15.3200    4.1400 O   0  0  0  0  0  0  0  0  0  0  0  0
   25.7880   15.2650    5.1790 C   0  0  0  0  0  0  0  0  0  0  0  0
   25.2560   15.6240    6.4260 C   0  0  0  0  0  0  0  0  0  0  0  0
   26.0250   15.6240    7.6100 C   0  0  0  0  0  0  0  0  0  0  0  0
   25.4680   15.9970    8.9170 C   0  0  0  0  0  0  0  0  0  0  0  0
   24.2360   15.4490    9.3570 C   0  0  0  0  0  0  0  0  0  0  0  0
   23.6870   15.7750   10.6020 C   0  0  0  0  0  0  0  0  0  0  0  0
   24.3930   16.6590   11.3920 C   0  0  0  0  0  0  0  0  0  0  0  0
   25.6040   17.2160   10.9960 C   0  0  0  0  0  0  0  0  0  0  0  0
   26.1530   16.8920    9.7660 C   0  0  0  0  0  0  0  0  0  0  0  0
   26.1280   18.1090   12.0680 C   0  0  0  0  0  0  0  0  0  0  0  0
   25.0550   18.0930   13.0520 N   0  0  0  0  0  0  0  0  0  0  0  0
   25.2350   18.6710   14.3790 C   0  0  1  0  0  0  0  0  0  0  0  0
   26.3010   17.9660   15.2190 C   0  0  0  0  0  0  0  0  0  0  0  0
   26.3620   18.6070   16.5960 C   0  0  0  0  0  0  0  0  0  0  0  0
   26.6340   20.0900   16.4980 C   0  0  0  0  0  0  0  0  0  0  0  0
   27.1260   20.7270   17.4260 O   0  0  0  0  0  0  0  0  0  0  0  0
   26.2230   20.7180   15.3500 N   0  0  0  0  0  0  0  0  0  0  0  0
   25.5240   20.1780   14.2950 C   0  0  0  0  0  0  0  0  0  0  0  0
   25.0790   20.9060   13.4080 O   0  0  0  0  0  0  0  0  0  0  0  0
   24.0690   17.1730   12.7270 C   0  0  0  0  0  0  0  0  0  0  0  0
   23.1160   16.8170   13.3920 O   0  0  0  0  0  0  0  0  0  0  0  0
   27.3630   15.2400    7.4420 C   0  0  0  0  0  0  0  0  0  0  0  0
   28.3100   15.1660    8.4260 O   0  0  0  0  0  0  0  0  0  0  0  0
   29.4690   14.7630    7.8460 C   0  0  0  0  0  0  0  0  0  0  0  0
   29.2910   14.5720    6.4970 C   0  0  0  0  0  0  0  0  0  0  0  0
   27.9310   14.8810    6.2220 C   0  0  0  0  0  0  0  0  0  0  0  0
   27.1310   14.8910    5.0640 C   0  0  0  0  0  0  0  0  0  0  0  0
   23.1020   12.7550    5.7340 C   0  0  0  0  0  0  0  0  0  0  0  0
   23.4610   11.9730    6.7310 N   0  0  0  0  0  0  0  0  0  0  0  0
   24.7464    9.1845    8.6779 H   0  0  0  0  0  0  0  0  0  0  0  0
   23.8606    9.4192    7.1330 H   0  0  0  0  0  0  0  0  0  0  0  0
   25.4708    8.6230    7.1330 H   0  0  0  0  0  0  0  0  0  0  0  0
   25.5788   11.2539    8.4057 H   0  0  0  0  0  0  0  0  0  0  0  0
   26.5251   10.5833    7.0071 H   0  0  0  0  0  0  0  0  0  0  0  0
   26.2220   12.1849    4.8741 H   0  0  0  0  0  0  0  0  0  0  0  0
   24.1974   15.9173    6.4839 H   0  0  0  0  0  0  0  0  0  0  0  0
   23.6975   14.7487    8.7016 H   0  0  0  0  0  0  0  0  0  0  0  0
   22.7319   15.3443   10.9372 H   0  0  0  0  0  0  0  0  0  0  0  0
   27.1135   17.3282    9.4543 H   0  0  0  0  0  0  0  0  0  0  0  0
   27.0618   17.7124   12.4931 H   0  0  0  0  0  0  0  0  0  0  0  0
   26.3774   19.1191   11.7110 H   0  0  0  0  0  0  0  0  0  0  0  0
   24.2788   18.5161   14.9003 H   0  0  0  0  0  0  0  0  0  0  0  0
   26.0438   16.9013   15.3206 H   0  0  0  0  0  0  0  0  0  0  0  0
   27.2797   18.0596   14.7257 H   0  0  0  0  0  0  0  0  0  0  0  0
   25.4002   18.4518   17.1067 H   0  0  0  0  0  0  0  0  0  0  0  0
   27.1818   18.1396   17.1612 H   0  0  0  0  0  0  0  0  0  0  0  0
   26.4673   21.7152   15.2676 H   0  0  0  0  0  0  0  0  0  0  0  0
   30.4180   14.6106    8.3810 H   0  0  0  0  0  0  0  0  0  0  0  0
   30.0512   14.2445    5.7725 H   0  0  0  0  0  0  0  0  0  0  0  0
   27.5535   14.6103    4.0879 H   0  0  0  0  0  0  0  0  0  0  0  0
   22.1157   13.2320    5.6350 H   0  0  0  0  0  0  0  0  0  0  0  0
  1  2  1  0
  2  3  1  0
  3  4  2  0
  4  5  1  0
  5  6  1  0
  6  7  2  0
  6  8  2  0
  6  9  1  0
  9 10  1  0
 10 11  2  0
 11 12  1  0
 12 13  1  0
 13 14  2  0
 14 15  1  0
 15 16  2  0
 16 17  1  0
 17 18  2  0
 17 19  1  0
 19 20  1  0
 20 21  1  0
 21 22  1  0
 22 23  1  0
 23 24  1  0
 24 25  2  0
 24 26  1  0
 26 27  1  0
 27 28  2  0
 20 29  1  0
 29 30  2  0
 12 31  2  0
 31 32  1  0
 32 33  1  0
 33 34  2  0
 34 35  1  0
 35 36  2  0
  5 37  1  0
 37 38  2  0
 38  3  1  0
 36 10  1  0
 18 13  1  0
 27 21  1  0
 35 31  1  0
 29 16  1  0
  1 39  1  0
  1 40  1  0
  1 41  1  0
  2 42  1  0
  2 43  1  0
  4 44  1  0
 11 45  1  0
 14 46  1  0
 15 47  1  0
 18 48  1  0
 19 49  1  0
 19 50  1  0
 21 51  1  1
 22 52  1  0
 22 53  1  0
 23 54  1  0
 23 55  1  0
 26 56  1  0
 33 57  1  0
 34 58  1  0
 36 59  1  0
 37 60  1  0
M  END
>  <meeko>  (134) 
{"is_sidechain": [true], "free_energy": -14.12, "intermolecular_energy": 0.0, "internal_energy": -14.12, "cluster_size": 18, "cluster_id": 1, "rank_in_cluster": 1}

>  <_RMSD_MCS_to_ref>  (134) 
0.5138193586595706

$$$$
ligand
     RDKit          3D

 57 61  0  0  0  0  0  0  0  0999 V2000
   24.8540    9.4020    7.6050 C   0  0  0  0  0  0  0  0  0  0  0  0
   25.5230   10.7550    7.4270 C   0  0  0  0  0  0  0  0  0  0  0  0
   25.1810   11.3910    6.1250 C   0  0  0  0  0  0  0  0  0  0  0  0
   24.3130   12.4340    5.8710 C   0  0  0  0  0  0  0  0  0  0  0  0
   24.3480   12.5770    4.5130 N   0  0  0  0  0  0  0  0  0  0  0  0
   23.6700   13.8600    3.6460 S   0  0  0  0  0  6  0  0  0  0  0  0
   22.2650   13.8300    4.0090 O   0  0  0  0  0  0  0  0  0  0  0  0
   24.0900   13.6540    2.2720 O   0  0  0  0  0  0  0  0  0  0  0  0
   24.3160   15.2470    4.2300 O   0  0  0  0  0  0  0  0  0  0  0  0
   25.1780   15.1710    5.2890 C   0  0  0  0  0  0  0  0  0  0  0  0
   26.4850   14.7350    5.0980 C   0  0  0  0  0  0  0  0  0  0  0  0
   27.3490   14.6630    6.1870 C   0  0  0  0  0  0  0  0  0  0  0  0
   26.9030   15.0350    7.4590 C   0  0  0  0  0  0  0  0  0  0  0  0
   25.5900   15.4940    7.6600 C   0  0  0  0  0  0  0  0  0  0  0  0
   25.1140   15.8680    8.9990 C   0  0  0  0  0  0  0  0  0  0  0  0
   23.9000   15.3320    9.4990 C   0  0  0  0  0  0  0  0  0  0  0  0
   23.4200   15.6680   10.7680 C   0  0  0  0  0  0  0  0  0  0  0  0
   24.1750   16.5490   11.5160 C   0  0  0  0  0  0  0  0  0  0  0  0
   25.3730   17.0900   11.0570 C   0  0  0  0  0  0  0  0  0  0  0  0
   25.8570   16.7570    9.8030 C   0  0  0  0  0  0  0  0  0  0  0  0
   25.9610   17.9790   12.1010 C   0  0  0  0  0  0  0  0  0  0  0  0
   24.9360   17.9820   13.1350 N   0  0  0  0  0  0  0  0  0  0  0  0
   25.1900   18.5590   14.4520 C   0  0  1  0  0  0  0  0  0  0  0  0
   26.2890   17.8440   15.2370 C   0  0  0  0  0  0  0  0  0  0  0  0
   26.4260   18.4840   16.6090 C   0  0  0  0  0  0  0  0  0  0  0  0
   26.7050   19.9640   16.4970 C   0  0  0  0  0  0  0  0  0  0  0  0
   27.2470   20.5970   17.4000 O   0  0  0  0  0  0  0  0  0  0  0  0
   26.2470   20.5950   15.3680 N   0  0  0  0  0  0  0  0  0  0  0  0
   25.4880   20.0630   14.3510 C   0  0  0  0  0  0  0  0  0  0  0  0
   25.0020   20.7960   13.4910 O   0  0  0  0  0  0  0  0  0  0  0  0
   23.9230   17.0720   12.8630 C   0  0  0  0  0  0  0  0  0  0  0  0
   22.9990   16.7330   13.5750 O   0  0  0  0  0  0  0  0  0  0  0  0
   24.7360   15.5760    6.5490 C   0  0  0  0  0  0  0  0  0  0  0  0
   25.2540   11.7060    3.9970 C   0  0  0  0  0  0  0  0  0  0  0  0
   25.7690   10.9590    4.9520 N   0  0  0  0  0  0  0  0  0  0  0  0
   24.7464    9.1845    8.6779 H   0  0  0  0  0  0  0  0  0  0  0  0
   23.8606    9.4192    7.1330 H   0  0  0  0  0  0  0  0  0  0  0  0
   25.4708    8.6230    7.1330 H   0  0  0  0  0  0  0  0  0  0  0  0
   25.1977   11.4196    8.2409 H   0  0  0  0  0  0  0  0  0  0  0  0
   26.6113   10.5959    7.4467 H   0  0  0  0  0  0  0  0  0  0  0  0
   23.7269   13.0170    6.5967 H   0  0  0  0  0  0  0  0  0  0  0  0
   26.8330   14.4494    4.0944 H   0  0  0  0  0  0  0  0  0  0  0  0
   28.3826   14.3135    6.0470 H   0  0  0  0  0  0  0  0  0  0  0  0
   27.5902   14.9674    8.3152 H   0  0  0  0  0  0  0  0  0  0  0  0
   23.3225   14.6354    8.8734 H   0  0  0  0  0  0  0  0  0  0  0  0
   22.4798   15.2479   11.1546 H   0  0  0  0  0  0  0  0  0  0  0  0
   26.8057   17.1791    9.4399 H   0  0  0  0  0  0  0  0  0  0  0  0
   26.9080   17.5697   12.4827 H   0  0  0  0  0  0  0  0  0  0  0  0
   26.2079   18.9843   11.7290 H   0  0  0  0  0  0  0  0  0  0  0  0
   24.2609   18.4135   15.0227 H   0  0  0  0  0  0  0  0  0  0  0  0
   26.0266   16.7819   15.3518 H   0  0  0  0  0  0  0  0  0  0  0  0
   27.2425   17.9282   14.6949 H   0  0  0  0  0  0  0  0  0  0  0  0
   25.4904   18.3368   17.1684 H   0  0  0  0  0  0  0  0  0  0  0  0
   27.2697   18.0095   17.1315 H   0  0  0  0  0  0  0  0  0  0  0  0
   26.5025   21.5880   15.2698 H   0  0  0  0  0  0  0  0  0  0  0  0
   23.7132   15.9615    6.6723 H   0  0  0  0  0  0  0  0  0  0  0  0
   25.5200   11.6346    2.9320 H   0  0  0  0  0  0  0  0  0  0  0  0
  1  2  1  0
  2  3  1  0
  3  4  2  0
  4  5  1  0
  5  6  1  0
  6  7  2  0
  6  8  2  0
  6  9  1  0
  9 10  1  0
 10 11  2  0
 11 12  1  0
 12 13  2  0
 13 14  1  0
 14 15  1  0
 15 16  2  0
 16 17  1  0
 17 18  2  0
 18 19  1  0
 19 20  2  0
 19 21  1  0
 21 22  1  0
 22 23  1  0
 23 24  1  0
 24 25  1  0
 25 26  1  0
 26 27  2  0
 26 28  1  0
 28 29  1  0
 29 30  2  0
 22 31  1  0
 31 32  2  0
 14 33  2  0
  5 34  1  0
 34 35  2  0
 35  3  1  0
 33 10  1  0
 20 15  1  0
 29 23  1  0
 31 18  1  0
  1 36  1  0
  1 37  1  0
  1 38  1  0
  2 39  1  0
  2 40  1  0
  4 41  1  0
 11 42  1  0
 12 43  1  0
 13 44  1  0
 16 45  1  0
 17 46  1  0
 20 47  1  0
 21 48  1  0
 21 49  1  0
 23 50  1  1
 24 51  1  0
 24 52  1  0
 25 53  1  0
 25 54  1  0
 28 55  1  0
 33 56  1  0
 34 57  1  0
M  END
>  <meeko>  (135) 
{"is_sidechain": [true], "free_energy": -14.11, "intermolecular_energy": 0.0, "internal_energy": -14.11, "cluster_size": 19, "cluster_id": 1, "rank_in_cluster": 1}

>  <_RMSD_MCS_to_ref>  (135) 
0.4117881062445148

$$$$
ligand
     RDKit          3D

 60 65  0  0  0  0  0  0  0  0999 V2000
   24.8710    9.6160    7.7820 C   0  0  0  0  0  0  0  0  0  0  0  0
   25.4240   10.9650    7.3490 C   0  0  0  0  0  0  0  0  0  0  0  0
   26.9060   10.9450    7.2070 C   0  0  0  0  0  0  0  0  0  0  0  0
   27.8520   11.7150    7.8530 C   0  0  0  0  0  0  0  0  0  0  0  0
   29.0440   11.2540    7.3720 N   0  0  0  0  0  0  0  0  0  0  0  0
   30.5470   11.9730    7.6160 S   0  0  0  0  0  6  0  0  0  0  0  0
   30.6850   12.0880    9.0590 O   0  0  0  0  0  0  0  0  0  0  0  0
   31.4770   11.1850    6.8330 O   0  0  0  0  0  0  0  0  0  0  0  0
   30.4520   13.4710    6.9700 O   0  0  0  0  0  0  0  0  0  0  0  0
   29.4460   13.8720    6.1850 C   0  0  0  0  0  0  0  0  0  0  0  0
   29.4330   13.7720    4.8130 N   0  0  0  0  0  0  0  0  0  0  0  0
   28.3170   14.2490    4.2270 N   0  0  0  0  0  0  0  0  0  0  0  0
   27.5610   14.6950    5.2410 C   0  0  0  0  0  0  0  0  0  0  0  0
   26.2940   15.2960    5.2240 C   0  0  0  0  0  0  0  0  0  0  0  0
   25.8090   15.6400    6.5090 C   0  0  0  0  0  0  0  0  0  0  0  0
   26.5230   15.4090    7.7420 C   0  0  0  0  0  0  0  0  0  0  0  0
   25.9020   15.8200    9.0170 C   0  0  0  0  0  0  0  0  0  0  0  0
   24.5350   15.5420    9.2710 C   0  0  0  0  0  0  0  0  0  0  0  0
   23.9230   15.9210   10.4700 C   0  0  0  0  0  0  0  0  0  0  0  0
   24.7040   16.5750   11.4000 C   0  0  0  0  0  0  0  0  0  0  0  0
   26.0480   16.8660   11.1820 C   0  0  0  0  0  0  0  0  0  0  0  0
   26.6590   16.4960    9.9950 C   0  0  0  0  0  0  0  0  0  0  0  0
   26.6100   17.5930   12.3580 C   0  0  0  0  0  0  0  0  0  0  0  0
   25.4900   17.6030   13.2910 N   0  0  0  0  0  0  0  0  0  0  0  0
   25.4570   18.4170   14.5000 C   0  0  1  0  0  0  0  0  0  0  0  0
   26.2980   17.8230   15.6260 C   0  0  0  0  0  0  0  0  0  0  0  0
   26.1420   18.6760   16.8770 C   0  0  0  0  0  0  0  0  0  0  0  0
   26.5010   20.1170   16.6020 C   0  0  0  0  0  0  0  0  0  0  0  0
   27.0650   20.8230   17.4320 O   0  0  0  0  0  0  0  0  0  0  0  0
   26.1480   20.6140   15.3730 N   0  0  0  0  0  0  0  0  0  0  0  0
   25.9170   19.8620   14.2430 C   0  0  0  0  0  0  0  0  0  0  0  0
   26.0900   20.3500   13.1290 O   0  0  0  0  0  0  0  0  0  0  0  0
   24.3340   17.0860   12.7240 C   0  0  0  0  0  0  0  0  0  0  0  0
   23.2180   17.0450   13.2040 O   0  0  0  0  0  0  0  0  0  0  0  0
   27.8030   14.7990    7.7620 C   0  0  0  0  0  0  0  0  0  0  0  0
   28.2520   14.4740    6.4840 C   0  0  0  0  0  0  0  0  0  0  0  0
   28.8070   10.3140    6.4230 C   0  0  0  0  0  0  0  0  0  0  0  0
   27.5150   10.0830    6.3160 N   0  0  0  0  0  0  0  0  0  0  0  0
   24.8497    9.5640    8.8806 H   0  0  0  0  0  0  0  0  0  0  0  0
   23.8507    9.4948    7.3893 H   0  0  0  0  0  0  0  0  0  0  0  0
   25.5127    8.8135    7.3893 H   0  0  0  0  0  0  0  0  0  0  0  0
   24.9788   11.2362    6.3804 H   0  0  0  0  0  0  0  0  0  0  0  0
   25.1687   11.7003    8.1263 H   0  0  0  0  0  0  0  0  0  0  0  0
   27.6841   12.5166    8.5873 H   0  0  0  0  0  0  0  0  0  0  0  0
   30.2130   13.3655    4.2770 H   0  0  0  0  0  0  0  0  0  0  0  0
   25.7296   15.4828    4.2985 H   0  0  0  0  0  0  0  0  0  0  0  0
   24.8195   16.1163    6.5720 H   0  0  0  0  0  0  0  0  0  0  0  0
   23.9425   15.0163    8.5077 H   0  0  0  0  0  0  0  0  0  0  0  0
   22.8617   15.7062   10.6636 H   0  0  0  0  0  0  0  0  0  0  0  0
   27.7200   16.7265    9.8183 H   0  0  0  0  0  0  0  0  0  0  0  0
   27.4735   17.0579   12.7800 H   0  0  0  0  0  0  0  0  0  0  0  0
   26.9841   18.5980   12.1130 H   0  0  0  0  0  0  0  0  0  0  0  0
   24.4023   18.4269   14.8122 H   0  0  0  0  0  0  0  0  0  0  0  0
   25.9587   16.7979   15.8360 H   0  0  0  0  0  0  0  0  0  0  0  0
   27.3555   17.8034   15.3239 H   0  0  0  0  0  0  0  0  0  0  0  0
   25.0976   18.6250   17.2184 H   0  0  0  0  0  0  0  0  0  0  0  0
   26.8215   18.2886   17.6505 H   0  0  0  0  0  0  0  0  0  0  0  0
   26.0473   21.6356   15.2885 H   0  0  0  0  0  0  0  0  0  0  0  0
   28.3755   14.6048    8.6810 H   0  0  0  0  0  0  0  0  0  0  0  0
   29.5849    9.8148    5.8266 H   0  0  0  0  0  0  0  0  0  0  0  0
  1  2  1  0
  2  3  1  0
  3  4  2  0
  4  5  1  0
  5  6  1  0
  6  7  2  0
  6  8  2  0
  6  9  1  0
  9 10  1  0
 10 11  1  0
 11 12  1  0
 12 13  2  0
 13 14  1  0
 14 15  2  0
 15 16  1  0
 16 17  1  0
 17 18  2  0
 18 19  1  0
 19 20  2  0
 20 21  1  0
 21 22  2  0
 21 23  1  0
 23 24  1  0
 24 25  1  0
 25 26  1  0
 26 27  1  0
 27 28  1  0
 28 29  2  0
 28 30  1  0
 30 31  1  0
 31 32  2  0
 24 33  1  0
 33 34  2  0
 16 35  2  0
 35 36  1  0
  5 37  1  0
 37 38  2  0
 38  3  1  0
 36 10  2  0
 36 13  1  0
 22 17  1  0
 31 25  1  0
 33 20  1  0
  1 39  1  0
  1 40  1  0
  1 41  1  0
  2 42  1  0
  2 43  1  0
  4 44  1  0
 11 45  1  0
 14 46  1  0
 15 47  1  0
 18 48  1  0
 19 49  1  0
 22 50  1  0
 23 51  1  0
 23 52  1  0
 25 53  1  1
 26 54  1  0
 26 55  1  0
 27 56  1  0
 27 57  1  0
 30 58  1  0
 35 59  1  0
 37 60  1  0
M  END
>  <meeko>  (136) 
{"is_sidechain": [true], "free_energy": -14.11, "intermolecular_energy": 0.0, "internal_energy": -14.11, "cluster_size": 16, "cluster_id": 1, "rank_in_cluster": 1}

>  <_RMSD_MCS_to_ref>  (136) 
0.809544608829069

$$$$
ligand
     RDKit          3D

 59 64  0  0  0  0  0  0  0  0999 V2000
   24.8710    9.6170    7.7820 C   0  0  0  0  0  0  0  0  0  0  0  0
   25.4240   10.9640    7.3490 C   0  0  0  0  0  0  0  0  0  0  0  0
   26.9080   11.0240    7.4470 C   0  0  0  0  0  0  0  0  0  0  0  0
   27.7030   12.0250    7.9690 C   0  0  0  0  0  0  0  0  0  0  0  0
   28.9710   11.5300    7.8680 N   0  0  0  0  0  0  0  0  0  0  0  0
   30.3980   12.3680    8.1690 S   0  0  0  0  0  6  0  0  0  0  0  0
   30.3170   12.7690    9.5630 O   0  0  0  0  0  0  0  0  0  0  0  0
   31.4280   11.4420    7.7320 O   0  0  0  0  0  0  0  0  0  0  0  0
   30.4730   13.6820    7.2020 O   0  0  0  0  0  0  0  0  0  0  0  0
   29.4880   14.0010    6.3450 C   0  0  0  0  0  0  0  0  0  0  0  0
   29.4450   13.7150    4.9750 C   0  0  0  0  0  0  0  0  0  0  0  0
   28.3090   14.1250    4.4080 N   0  0  0  0  0  0  0  0  0  0  0  0
   27.5910   14.6560    5.4320 N   0  0  0  0  0  0  0  0  0  0  0  0
   26.3120   15.1930    5.3810 C   0  0  0  0  0  0  0  0  0  0  0  0
   25.7160   15.6350    6.4980 C   0  0  0  0  0  0  0  0  0  0  0  0
   26.5180   15.4960    7.7590 C   0  0  0  0  0  0  0  0  0  0  0  0
   25.8460   15.9290    9.0140 C   0  0  0  0  0  0  0  0  0  0  0  0
   24.5090   15.5630    9.2880 C   0  0  0  0  0  0  0  0  0  0  0  0
   23.9120   15.9170   10.5020 C   0  0  0  0  0  0  0  0  0  0  0  0
   24.6850   16.6120   11.4140 C   0  0  0  0  0  0  0  0  0  0  0  0
   26.0050   16.9750   11.1600 C   0  0  0  0  0  0  0  0  0  0  0  0
   26.5980   16.6490    9.9540 C   0  0  0  0  0  0  0  0  0  0  0  0
   26.5760   17.6990   12.3330 C   0  0  0  0  0  0  0  0  0  0  0  0
   25.4840   17.6420   13.2980 N   0  0  0  0  0  0  0  0  0  0  0  0
   25.4640   18.4220   14.5290 C   0  0  1  0  0  0  0  0  0  0  0  0
   26.3460   17.8180   15.6160 C   0  0  0  0  0  0  0  0  0  0  0  0
   26.2050   18.6330   16.8930 C   0  0  0  0  0  0  0  0  0  0  0  0
   26.5250   20.0900   16.6500 C   0  0  0  0  0  0  0  0  0  0  0  0
   27.0640   20.7930   17.4990 O   0  0  0  0  0  0  0  0  0  0  0  0
   26.1590   20.6050   15.4330 N   0  0  0  0  0  0  0  0  0  0  0  0
   25.8830   19.8820   14.2940 C   0  0  0  0  0  0  0  0  0  0  0  0
   25.9790   20.4090   13.1880 O   0  0  0  0  0  0  0  0  0  0  0  0
   24.3370   17.0790   12.7590 C   0  0  0  0  0  0  0  0  0  0  0  0
   23.2390   16.9710   13.2720 O   0  0  0  0  0  0  0  0  0  0  0  0
   27.7390   15.0340    7.8200 N   0  0  0  0  0  0  0  0  0  0  0  0
   28.2860   14.5950    6.6470 C   0  0  0  0  0  0  0  0  0  0  0  0
   28.9320   10.3550    7.1860 C   0  0  0  0  0  0  0  0  0  0  0  0
   27.6860    9.9880    6.9600 N   0  0  0  0  0  0  0  0  0  0  0  0
   24.8498    9.5653    8.8806 H   0  0  0  0  0  0  0  0  0  0  0  0
   23.8505    9.4962    7.3895 H   0  0  0  0  0  0  0  0  0  0  0  0
   25.5122    8.8140    7.3895 H   0  0  0  0  0  0  0  0  0  0  0  0
   25.1309   11.1475    6.3048 H   0  0  0  0  0  0  0  0  0  0  0  0
   25.0113   11.7293    8.0229 H   0  0  0  0  0  0  0  0  0  0  0  0
   27.3870   12.9979    8.3734 H   0  0  0  0  0  0  0  0  0  0  0  0
   30.2552   13.2100    4.4286 H   0  0  0  0  0  0  0  0  0  0  0  0
   25.7839   15.2564    4.4181 H   0  0  0  0  0  0  0  0  0  0  0  0
   24.7060   16.0707    6.4906 H   0  0  0  0  0  0  0  0  0  0  0  0
   23.9339   14.9958    8.5413 H   0  0  0  0  0  0  0  0  0  0  0  0
   22.8674   15.6527   10.7231 H   0  0  0  0  0  0  0  0  0  0  0  0
   27.6344   16.9471    9.7371 H   0  0  0  0  0  0  0  0  0  0  0  0
   27.4729   17.1905   12.7165 H   0  0  0  0  0  0  0  0  0  0  0  0
   26.9041   18.7229   12.1004 H   0  0  0  0  0  0  0  0  0  0  0  0
   24.4193   18.3996   14.8727 H   0  0  0  0  0  0  0  0  0  0  0  0
   26.0345   16.7804   15.8067 H   0  0  0  0  0  0  0  0  0  0  0  0
   27.3954   17.8306   15.2864 H   0  0  0  0  0  0  0  0  0  0  0  0
   25.1714   18.5491   17.2599 H   0  0  0  0  0  0  0  0  0  0  0  0
   26.9138   18.2402   17.6368 H   0  0  0  0  0  0  0  0  0  0  0  0
   26.0833   21.6299   15.3643 H   0  0  0  0  0  0  0  0  0  0  0  0
   29.8187    9.7878    6.8663 H   0  0  0  0  0  0  0  0  0  0  0  0
  1  2  1  0
  2  3  1  0
  3  4  2  0
  4  5  1  0
  5  6  1  0
  6  7  2  0
  6  8  2  0
  6  9  1  0
  9 10  1  0
 10 11  1  0
 11 12  2  0
 12 13  1  0
 13 14  1  0
 14 15  2  0
 15 16  1  0
 16 17  1  0
 17 18  2  0
 18 19  1  0
 19 20  2  0
 20 21  1  0
 21 22  2  0
 21 23  1  0
 23 24  1  0
 24 25  1  0
 25 26  1  0
 26 27  1  0
 27 28  1  0
 28 29  2  0
 28 30  1  0
 30 31  1  0
 31 32  2  0
 24 33  1  0
 33 34  2  0
 16 35  2  0
 35 36  1  0
  5 37  1  0
 37 38  2  0
 38  3  1  0
 36 10  2  0
 36 13  1  0
 22 17  1  0
 31 25  1  0
 33 20  1  0
  1 39  1  0
  1 40  1  0
  1 41  1  0
  2 42  1  0
  2 43  1  0
  4 44  1  0
 11 45  1  0
 14 46  1  0
 15 47  1  0
 18 48  1  0
 19 49  1  0
 22 50  1  0
 23 51  1  0
 23 52  1  0
 25 53  1  1
 26 54  1  0
 26 55  1  0
 27 56  1  0
 27 57  1  0
 30 58  1  0
 37 59  1  0
M  END
>  <meeko>  (137) 
{"is_sidechain": [true], "free_energy": -14.11, "intermolecular_energy": 0.0, "internal_energy": -14.11, "cluster_size": 19, "cluster_id": 1, "rank_in_cluster": 1}

>  <_RMSD_MCS_to_ref>  (137) 
0.783242047685872

$$$$
ligand
     RDKit          3D

 64 69  0  0  0  0  0  0  0  0999 V2000
   24.8710    9.6160    7.7820 C   0  0  0  0  0  0  0  0  0  0  0  0
   25.4240   10.9650    7.3490 C   0  0  0  0  0  0  0  0  0  0  0  0
   26.9050   10.9440    7.2010 C   0  0  0  0  0  0  0  0  0  0  0  0
   27.8670   11.5120    8.0100 C   0  0  0  0  0  0  0  0  0  0  0  0
   29.0500   11.1590    7.4250 N   0  0  0  0  0  0  0  0  0  0  0  0
   30.5730   11.7040    7.8790 S   0  0  0  0  0  6  0  0  0  0  0  0
   30.4670   12.0870    9.2730 O   0  0  0  0  0  0  0  0  0  0  0  0
   31.5120   10.6900    7.4330 O   0  0  0  0  0  0  0  0  0  0  0  0
   30.8210   13.1630    6.9260 C   0  0  0  0  0  0  0  0  0  0  0  0
   32.0990   13.4820    6.4450 C   0  0  0  0  0  0  0  0  0  0  0  0
   32.2790   14.6040    5.6180 C   0  0  0  0  0  0  0  0  0  0  0  0
   31.1900   15.3960    5.2460 C   0  0  0  0  0  0  0  0  0  0  0  0
   29.9510   15.0420    5.7290 C   0  0  0  0  0  0  0  0  0  0  0  0
   29.7630   13.9700    6.5670 C   0  0  0  0  0  0  0  0  0  0  0  0
   28.2690   14.1960    6.6750 C   0  0  1  0  0  0  0  0  0  0  0  0
   27.8020   14.5830    8.1190 C   0  0  0  0  0  0  0  0  0  0  0  0
   28.5450   14.5390    9.1020 O   0  0  0  0  0  0  0  0  0  0  0  0
   26.4710   14.9680    8.1670 N   0  0  0  0  0  0  0  0  0  0  0  0
   25.7320   15.4210    9.2790 C   0  0  0  0  0  0  0  0  0  0  0  0
   24.4150   15.0120    9.5660 C   0  0  0  0  0  0  0  0  0  0  0  0
   23.7220   15.5030   10.6840 C   0  0  0  0  0  0  0  0  0  0  0  0
   24.3630   16.4070   11.5060 C   0  0  0  0  0  0  0  0  0  0  0  0
   25.6670   16.8010   11.2200 C   0  0  0  0  0  0  0  0  0  0  0  0
   26.3730   16.3290   10.1300 C   0  0  0  0  0  0  0  0  0  0  0  0
   26.0910   17.7530   12.2510 C   0  0  0  0  0  0  0  0  0  0  0  0
   27.1990   18.2500   12.3280 O   0  0  0  0  0  0  0  0  0  0  0  0
   25.0020   17.9560   13.0840 N   0  0  0  0  0  0  0  0  0  0  0  0
   25.1230   18.6530   14.3580 C   0  0  1  0  0  0  0  0  0  0  0  0
   26.0860   17.9570   15.3160 C   0  0  0  0  0  0  0  0  0  0  0  0
   26.0870   18.6870   16.6500 C   0  0  0  0  0  0  0  0  0  0  0  0
   26.4280   20.1490   16.4710 C   0  0  0  0  0  0  0  0  0  0  0  0
   27.0850   20.7760   17.2960 O   0  0  0  0  0  0  0  0  0  0  0  0
   25.9450   20.7570   15.3400 N   0  0  0  0  0  0  0  0  0  0  0  0
   25.5640   20.1160   14.1830 C   0  0  0  0  0  0  0  0  0  0  0  0
   25.5970   20.7100   13.1070 O   0  0  0  0  0  0  0  0  0  0  0  0
   23.8860   17.0780   12.7500 C   0  0  0  0  0  0  0  0  0  0  0  0
   28.4930   15.3910    5.6750 C   0  0  0  0  0  0  0  0  0  0  0  0
   28.7930   10.4610    6.2900 C   0  0  0  0  0  0  0  0  0  0  0  0
   27.4950   10.3000    6.1320 N   0  0  0  0  0  0  0  0  0  0  0  0
   24.8497    9.5640    8.8806 H   0  0  0  0  0  0  0  0  0  0  0  0
   23.8507    9.4948    7.3893 H   0  0  0  0  0  0  0  0  0  0  0  0
   25.5127    8.8135    7.3893 H   0  0  0  0  0  0  0  0  0  0  0  0
   24.9752   11.2382    6.3826 H   0  0  0  0  0  0  0  0  0  0  0  0
   25.1728   11.6991    8.1287 H   0  0  0  0  0  0  0  0  0  0  0  0
   27.7160   12.1125    8.9192 H   0  0  0  0  0  0  0  0  0  0  0  0
   32.9608   12.8540    6.7150 H   0  0  0  0  0  0  0  0  0  0  0  0
   33.2870   14.8610    5.2602 H   0  0  0  0  0  0  0  0  0  0  0  0
   31.3182   16.2704    4.5911 H   0  0  0  0  0  0  0  0  0  0  0  0
   27.5157   13.4186    6.4796 H   0  0  0  0  0  0  0  0  0  0  0  0
   25.9562   14.9165    7.2764 H   0  0  0  0  0  0  0  0  0  0  0  0
   23.9183   14.2918    8.8992 H   0  0  0  0  0  0  0  0  0  0  0  0
   22.6942   15.1753   10.8991 H   0  0  0  0  0  0  0  0  0  0  0  0
   27.4054   16.6562    9.9372 H   0  0  0  0  0  0  0  0  0  0  0  0
   24.1133   18.6325   14.7940 H   0  0  0  0  0  0  0  0  0  0  0  0
   25.7645   16.9160   15.4675 H   0  0  0  0  0  0  0  0  0  0  0  0
   27.1002   17.9683   14.8902 H   0  0  0  0  0  0  0  0  0  0  0  0
   25.0892   18.6041   17.1055 H   0  0  0  0  0  0  0  0  0  0  0  0
   26.8478   18.2280   17.2985 H   0  0  0  0  0  0  0  0  0  0  0  0
   25.8600   21.7833   15.3582 H   0  0  0  0  0  0  0  0  0  0  0  0
   23.7025   16.3465   13.5507 H   0  0  0  0  0  0  0  0  0  0  0  0
   22.9322   17.6109   12.6222 H   0  0  0  0  0  0  0  0  0  0  0  0
   28.0230   15.2632    4.6887 H   0  0  0  0  0  0  0  0  0  0  0  0
   28.1243   16.4066    5.8816 H   0  0  0  0  0  0  0  0  0  0  0  0
   29.5607   10.0827    5.5989 H   0  0  0  0  0  0  0  0  0  0  0  0
  1  2  1  0
  2  3  1  0
  3  4  2  0
  4  5  1  0
  5  6  1  0
  6  7  2  0
  6  8  2  0
  6  9  1  0
  9 10  2  0
 10 11  1  0
 11 12  2  0
 12 13  1  0
 13 14  2  0
 14 15  1  0
 15 16  1  0
 16 17  2  0
 16 18  1  0
 18 19  1  0
 19 20  2  0
 20 21  1  0
 21 22  2  0
 22 23  1  0
 23 24  2  0
 23 25  1  0
 25 26  2  0
 25 27  1  0
 27 28  1  0
 28 29  1  0
 29 30  1  0
 30 31  1  0
 31 32  2  0
 31 33  1  0
 33 34  1  0
 34 35  2  0
 27 36  1  0
 15 37  1  0
  5 38  1  0
 38 39  2  0
 39  3  1  0
 14  9  1  0
 24 19  1  0
 34 28  1  0
 37 13  1  0
 36 22  1  0
  1 40  1  0
  1 41  1  0
  1 42  1  0
  2 43  1  0
  2 44  1  0
  4 45  1  0
 10 46  1  0
 11 47  1  0
 12 48  1  0
 15 49  1  6
 18 50  1  0
 20 51  1  0
 21 52  1  0
 24 53  1  0
 28 54  1  1
 29 55  1  0
 29 56  1  0
 30 57  1  0
 30 58  1  0
 33 59  1  0
 36 60  1  0
 36 61  1  0
 37 62  1  0
 37 63  1  0
 38 64  1  0
M  END
>  <meeko>  (138) 
{"is_sidechain": [true], "free_energy": -14.11, "intermolecular_energy": 0.0, "internal_energy": -14.11, "cluster_size": 20, "cluster_id": 1, "rank_in_cluster": 1}

>  <_RMSD_MCS_to_ref>  (138) 
1.9085705820499979

$$$$
ligand
     RDKit          3D

 60 64  0  0  0  0  0  0  0  0999 V2000
   24.8540    9.4020    7.6050 C   0  0  0  0  0  0  0  0  0  0  0  0
   25.5230   10.7550    7.4270 C   0  0  0  0  0  0  0  0  0  0  0  0
   25.3520   11.2900    6.0490 C   0  0  0  0  0  0  0  0  0  0  0  0
   26.1060   12.2390    5.3870 C   0  0  0  0  0  0  0  0  0  0  0  0
   25.5190   12.3380    4.1590 N   0  0  0  0  0  0  0  0  0  0  0  0
   25.8710   13.4790    2.9770 S   0  0  0  0  0  6  0  0  0  0  0  0
   24.8310   13.3230    1.9780 O   0  0  0  0  0  0  0  0  0  0  0  0
   27.2780   13.3210    2.6620 O   0  0  0  0  0  0  0  0  0  0  0  0
   25.6490   15.0370    3.7900 C   0  0  0  0  0  0  0  0  0  0  0  0
   25.7690   16.2220    3.0610 C   0  0  0  0  0  0  0  0  0  0  0  0
   25.5870   17.4400    3.7110 C   0  0  0  0  0  0  0  0  0  0  0  0
   25.2910   17.4660    5.0770 C   0  0  0  0  0  0  0  0  0  0  0  0
   25.1790   16.2790    5.8140 C   0  0  0  0  0  0  0  0  0  0  0  0
   24.8710   16.3980    7.1860 N   0  0  0  0  0  0  0  0  0  0  0  0
   24.7470   15.3730    8.1070 C   0  0  0  0  0  0  0  0  0  0  0  0
   24.9300   14.1790    7.9050 O   0  0  0  0  0  0  0  0  0  0  0  0
   24.3860   15.8030    9.4890 C   0  0  0  0  0  0  0  0  0  0  0  0
   23.2410   15.2950   10.1470 C   0  0  0  0  0  0  0  0  0  0  0  0
   22.9250   15.7120   11.4430 C   0  0  0  0  0  0  0  0  0  0  0  0
   23.7730   16.6210   12.0480 C   0  0  0  0  0  0  0  0  0  0  0  0
   24.9170   17.1140   11.4250 C   0  0  0  0  0  0  0  0  0  0  0  0
   25.2420   16.7090   10.1420 C   0  0  0  0  0  0  0  0  0  0  0  0
   25.6430   18.0320   12.3490 C   0  0  0  0  0  0  0  0  0  0  0  0
   24.7430   18.1100   13.4940 N   0  0  0  0  0  0  0  0  0  0  0  0
   25.1620   18.7370   14.7430 C   0  0  1  0  0  0  0  0  0  0  0  0
   26.2960   17.9990   15.4530 C   0  0  0  0  0  0  0  0  0  0  0  0
   26.6090   18.6990   16.7660 C   0  0  0  0  0  0  0  0  0  0  0  0
   26.9570   20.1520   16.5430 C   0  0  0  0  0  0  0  0  0  0  0  0
   27.6340   20.7920   17.3420 O   0  0  0  0  0  0  0  0  0  0  0  0
   26.4080   20.7550   15.4390 N   0  0  0  0  0  0  0  0  0  0  0  0
   25.5320   20.2130   14.5270 C   0  0  0  0  0  0  0  0  0  0  0  0
   25.0160   20.9230   13.6630 O   0  0  0  0  0  0  0  0  0  0  0  0
   23.6910   17.2140   13.3860 C   0  0  0  0  0  0  0  0  0  0  0  0
   22.8460   16.9290   14.2130 O   0  0  0  0  0  0  0  0  0  0  0  0
   25.3680   15.0610    5.1620 C   0  0  0  0  0  0  0  0  0  0  0  0
   24.4400   11.5130    4.1140 C   0  0  0  0  0  0  0  0  0  0  0  0
   24.3170   10.8510    5.2460 N   0  0  0  0  0  0  0  0  0  0  0  0
   24.7464    9.1845    8.6779 H   0  0  0  0  0  0  0  0  0  0  0  0
   23.8606    9.4192    7.1330 H   0  0  0  0  0  0  0  0  0  0  0  0
   25.4708    8.6230    7.1330 H   0  0  0  0  0  0  0  0  0  0  0  0
   25.0802   11.4657    8.1403 H   0  0  0  0  0  0  0  0  0  0  0  0
   26.6003   10.6252    7.6075 H   0  0  0  0  0  0  0  0  0  0  0  0
   26.9805   12.7897    5.7638 H   0  0  0  0  0  0  0  0  0  0  0  0
   26.0043   16.1937    1.9868 H   0  0  0  0  0  0  0  0  0  0  0  0
   25.6762   18.3817    3.1496 H   0  0  0  0  0  0  0  0  0  0  0  0
   25.1438   18.4326    5.5811 H   0  0  0  0  0  0  0  0  0  0  0  0
   24.7221   17.3534    7.5409 H   0  0  0  0  0  0  0  0  0  0  0  0
   22.5950   14.5667    9.6349 H   0  0  0  0  0  0  0  0  0  0  0  0
   22.0337   15.3307   11.9629 H   0  0  0  0  0  0  0  0  0  0  0  0
   26.1477   17.0863    9.6448 H   0  0  0  0  0  0  0  0  0  0  0  0
   26.6183   17.6138   12.6386 H   0  0  0  0  0  0  0  0  0  0  0  0
   25.8690   19.0119   11.9032 H   0  0  0  0  0  0  0  0  0  0  0  0
   24.2894   18.6773   15.4101 H   0  0  0  0  0  0  0  0  0  0  0  0
   25.9899   16.9617   15.6538 H   0  0  0  0  0  0  0  0  0  0  0  0
   27.1913   17.9986   14.8139 H   0  0  0  0  0  0  0  0  0  0  0  0
   25.7292   18.6379   17.4234 H   0  0  0  0  0  0  0  0  0  0  0  0
   27.4745   18.2012   17.2276 H   0  0  0  0  0  0  0  0  0  0  0  0
   26.6858   21.7328   15.2730 H   0  0  0  0  0  0  0  0  0  0  0  0
   25.2964   14.1188    5.7252 H   0  0  0  0  0  0  0  0  0  0  0  0
   23.7637   11.4122    3.2524 H   0  0  0  0  0  0  0  0  0  0  0  0
  1  2  1  0
  2  3  1  0
  3  4  2  0
  4  5  1  0
  5  6  1  0
  6  7  2  0
  6  8  2  0
  6  9  1  0
  9 10  2  0
 10 11  1  0
 11 12  2  0
 12 13  1  0
 13 14  1  0
 14 15  1  0
 15 16  2  0
 15 17  1  0
 17 18  2  0
 18 19  1  0
 19 20  2  0
 20 21  1  0
 21 22  2  0
 21 23  1  0
 23 24  1  0
 24 25  1  0
 25 26  1  0
 26 27  1  0
 27 28  1  0
 28 29  2  0
 28 30  1  0
 30 31  1  0
 31 32  2  0
 24 33  1  0
 33 34  2  0
 13 35  2  0
  5 36  1  0
 36 37  2  0
 37  3  1  0
 35  9  1  0
 22 17  1  0
 31 25  1  0
 33 20  1  0
  1 38  1  0
  1 39  1  0
  1 40  1  0
  2 41  1  0
  2 42  1  0
  4 43  1  0
 10 44  1  0
 11 45  1  0
 12 46  1  0
 14 47  1  0
 18 48  1  0
 19 49  1  0
 22 50  1  0
 23 51  1  0
 23 52  1  0
 25 53  1  1
 26 54  1  0
 26 55  1  0
 27 56  1  0
 27 57  1  0
 30 58  1  0
 35 59  1  0
 36 60  1  0
M  END
>  <meeko>  (139) 
{"is_sidechain": [true], "free_energy": -14.1, "intermolecular_energy": 0.0, "internal_energy": -14.1, "cluster_size": 20, "cluster_id": 1, "rank_in_cluster": 1}

>  <_RMSD_MCS_to_ref>  (139) 
0.4615005417114905

$$$$
ligand
     RDKit          3D

 59 64  0  0  0  0  0  0  0  0999 V2000
   24.8710    9.6160    7.7820 C   0  0  0  0  0  0  0  0  0  0  0  0
   25.4240   10.9650    7.3490 C   0  0  0  0  0  0  0  0  0  0  0  0
   25.2860   11.1850    5.8840 C   0  0  0  0  0  0  0  0  0  0  0  0
   26.2310   11.6290    4.9790 C   0  0  0  0  0  0  0  0  0  0  0  0
   25.5790   11.6130    3.7780 N   0  0  0  0  0  0  0  0  0  0  0  0
   26.1450   12.2910    2.3430 S   0  0  0  0  0  6  0  0  0  0  0  0
   25.2420   11.7970    1.3210 O   0  0  0  0  0  0  0  0  0  0  0  0
   27.5630   11.9860    2.3230 O   0  0  0  0  0  0  0  0  0  0  0  0
   25.9440   13.9020    2.5020 O   0  0  0  0  0  0  0  0  0  0  0  0
   26.0000   14.5710    3.7060 C   0  0  0  0  0  0  0  0  0  0  0  0
   27.0090   15.6260    3.7170 C   0  0  0  0  0  0  0  0  0  0  0  0
   27.1810   16.3670    4.8250 C   0  0  0  0  0  0  0  0  0  0  0  0
   26.3880   16.1100    5.9390 N   0  0  0  0  0  0  0  0  0  0  0  0
   26.3770   16.7230    7.1660 C   0  0  0  0  0  0  0  0  0  0  0  0
   25.3980   16.0790    7.8950 C   0  0  0  0  0  0  0  0  0  0  0  0
   24.9980   16.3700    9.2650 C   0  0  0  0  0  0  0  0  0  0  0  0
   23.7270   15.9240    9.7180 C   0  0  0  0  0  0  0  0  0  0  0  0
   23.2780   16.1700   11.0220 C   0  0  0  0  0  0  0  0  0  0  0  0
   24.1280   16.8650   11.8540 C   0  0  0  0  0  0  0  0  0  0  0  0
   25.3690   17.3000   11.4300 C   0  0  0  0  0  0  0  0  0  0  0  0
   25.8330   17.0730   10.1460 C   0  0  0  0  0  0  0  0  0  0  0  0
   25.9980   17.9970   12.5490 C   0  0  0  0  0  0  0  0  0  0  0  0
   27.0810   18.5460   12.4840 O   0  0  0  0  0  0  0  0  0  0  0  0
   25.1300   17.9130   13.6030 N   0  0  0  0  0  0  0  0  0  0  0  0
   25.2950   18.5960   14.8770 C   0  0  1  0  0  0  0  0  0  0  0  0
   26.3160   17.9480   15.8080 C   0  0  0  0  0  0  0  0  0  0  0  0
   26.3680   18.7290   17.1130 C   0  0  0  0  0  0  0  0  0  0  0  0
   26.6850   20.1860   16.8690 C   0  0  0  0  0  0  0  0  0  0  0  0
   27.2640   20.8790   17.6990 O   0  0  0  0  0  0  0  0  0  0  0  0
   26.2420   20.7210   15.6850 N   0  0  0  0  0  0  0  0  0  0  0  0
   25.6670   20.0610   14.6230 C   0  0  0  0  0  0  0  0  0  0  0  0
   25.4300   20.6560   13.5730 O   0  0  0  0  0  0  0  0  0  0  0  0
   23.9680   17.2830   13.2450 C   0  0  0  0  0  0  0  0  0  0  0  0
   22.9740   17.0820   13.9160 O   0  0  0  0  0  0  0  0  0  0  0  0
   24.8100   15.0870    7.1400 N   0  0  0  0  0  0  0  0  0  0  0  0
   25.4150   15.1190    5.9730 C   0  0  0  0  0  0  0  0  0  0  0  0
   25.2350   14.3340    4.7970 C   0  0  0  0  0  0  0  0  0  0  0  0
   24.2850   11.2550    3.9810 C   0  0  0  0  0  0  0  0  0  0  0  0
   24.0800   10.9640    5.2480 N   0  0  0  0  0  0  0  0  0  0  0  0
   24.8497    9.5640    8.8806 H   0  0  0  0  0  0  0  0  0  0  0  0
   23.8507    9.4948    7.3893 H   0  0  0  0  0  0  0  0  0  0  0  0
   25.5127    8.8135    7.3893 H   0  0  0  0  0  0  0  0  0  0  0  0
   24.8775   11.7587    7.8794 H   0  0  0  0  0  0  0  0  0  0  0  0
   26.4962   10.9848    7.5939 H   0  0  0  0  0  0  0  0  0  0  0  0
   27.2707   11.9272    5.1794 H   0  0  0  0  0  0  0  0  0  0  0  0
   27.6243   15.8132    2.8246 H   0  0  0  0  0  0  0  0  0  0  0  0
   27.9377   17.1650    4.8508 H   0  0  0  0  0  0  0  0  0  0  0  0
   27.0154   17.5545    7.4994 H   0  0  0  0  0  0  0  0  0  0  0  0
   23.0771   15.3697    9.0249 H   0  0  0  0  0  0  0  0  0  0  0  0
   22.2920   15.8241   11.3658 H   0  0  0  0  0  0  0  0  0  0  0  0
   26.8228   17.4316    9.8272 H   0  0  0  0  0  0  0  0  0  0  0  0
   24.3295   18.5213   15.3987 H   0  0  0  0  0  0  0  0  0  0  0  0
   26.0199   16.9085   16.0126 H   0  0  0  0  0  0  0  0  0  0  0  0
   27.3078   17.9558   15.3323 H   0  0  0  0  0  0  0  0  0  0  0  0
   25.3919   18.6539   17.6146 H   0  0  0  0  0  0  0  0  0  0  0  0
   27.1629   18.3015   17.7418 H   0  0  0  0  0  0  0  0  0  0  0  0
   26.3534   21.7394   15.5785 H   0  0  0  0  0  0  0  0  0  0  0  0
   24.4764   13.5377    4.7762 H   0  0  0  0  0  0  0  0  0  0  0  0
   23.5155   11.2139    3.1960 H   0  0  0  0  0  0  0  0  0  0  0  0
  1  2  1  0
  2  3  1  0
  3  4  2  0
  4  5  1  0
  5  6  1  0
  6  7  2  0
  6  8  2  0
  6  9  1  0
  9 10  1  0
 10 11  1  0
 11 12  2  0
 12 13  1  0
 13 14  1  0
 14 15  2  0
 15 16  1  0
 16 17  2  0
 17 18  1  0
 18 19  2  0
 19 20  1  0
 20 21  2  0
 20 22  1  0
 22 23  2  0
 22 24  1  0
 24 25  1  0
 25 26  1  0
 26 27  1  0
 27 28  1  0
 28 29  2  0
 28 30  1  0
 30 31  1  0
 31 32  2  0
 24 33  1  0
 33 34  2  0
 15 35  1  0
 35 36  2  0
 36 37  1  0
  5 38  1  0
 38 39  2  0
 39  3  1  0
 37 10  2  0
 36 13  1  0
 21 16  1  0
 31 25  1  0
 33 19  1  0
  1 40  1  0
  1 41  1  0
  1 42  1  0
  2 43  1  0
  2 44  1  0
  4 45  1  0
 11 46  1  0
 12 47  1  0
 14 48  1  0
 17 49  1  0
 18 50  1  0
 21 51  1  0
 25 52  1  1
 26 53  1  0
 26 54  1  0
 27 55  1  0
 27 56  1  0
 30 57  1  0
 37 58  1  0
 38 59  1  0
M  END
>  <meeko>  (140) 
{"is_sidechain": [true], "free_energy": -14.1, "intermolecular_energy": 0.0, "internal_energy": -14.1, "cluster_size": 20, "cluster_id": 1, "rank_in_cluster": 1}

>  <_RMSD_MCS_to_ref>  (140) 
0.7379331377499417

$$$$
ligand
     RDKit          3D

 59 64  0  0  0  0  0  0  0  0999 V2000
   24.8540    9.4020    7.6050 C   0  0  0  0  0  0  0  0  0  0  0  0
   25.5230   10.7550    7.4270 C   0  0  0  0  0  0  0  0  0  0  0  0
   26.8390   10.6460    6.7390 C   0  0  0  0  0  0  0  0  0  0  0  0
   27.2800   11.2900    5.6010 C   0  0  0  0  0  0  0  0  0  0  0  0
   28.5400   10.7990    5.4050 N   0  0  0  0  0  0  0  0  0  0  0  0
   29.6670   11.3900    4.3010 S   0  0  0  0  0  6  0  0  0  0  0  0
   29.1030   11.0900    2.9980 O   0  0  0  0  0  0  0  0  0  0  0  0
   30.9340   10.8280    4.7280 O   0  0  0  0  0  0  0  0  0  0  0  0
   29.6980   13.0040    4.5130 O   0  0  0  0  0  0  0  0  0  0  0  0
   28.8910   13.5920    5.3840 C   0  0  0  0  0  0  0  0  0  0  0  0
   28.8400   13.7380    6.7560 C   0  0  0  0  0  0  0  0  0  0  0  0
   27.6820   14.5000    7.0250 C   0  0  0  0  0  0  0  0  0  0  0  0
   27.1660   14.9280    8.2010 N   0  0  0  0  0  0  0  0  0  0  0  0
   26.0170   15.6470    8.1040 C   0  0  0  0  0  0  0  0  0  0  0  0
   25.4610   16.1060    9.3970 C   0  0  0  0  0  0  0  0  0  0  0  0
   24.1620   15.6930    9.8010 C   0  0  0  0  0  0  0  0  0  0  0  0
   23.6020   16.0950   11.0170 C   0  0  0  0  0  0  0  0  0  0  0  0
   24.3560   16.9280   11.8160 C   0  0  0  0  0  0  0  0  0  0  0  0
   25.6270   17.3640   11.4540 C   0  0  0  0  0  0  0  0  0  0  0  0
   26.1900   16.9610   10.2520 C   0  0  0  0  0  0  0  0  0  0  0  0
   26.1870   18.2380   12.5240 C   0  0  0  0  0  0  0  0  0  0  0  0
   25.0820   18.3410   13.4680 N   0  0  0  0  0  0  0  0  0  0  0  0
   25.2670   18.9300   14.7900 C   0  0  1  0  0  0  0  0  0  0  0  0
   26.3060   18.2080   15.6480 C   0  0  0  0  0  0  0  0  0  0  0  0
   26.3710   18.8650   17.0180 C   0  0  0  0  0  0  0  0  0  0  0  0
   26.6830   20.3390   16.9040 C   0  0  0  0  0  0  0  0  0  0  0  0
   27.1780   20.9770   17.8300 O   0  0  0  0  0  0  0  0  0  0  0  0
   26.3040   20.9620   15.7410 N   0  0  0  0  0  0  0  0  0  0  0  0
   25.5960   20.4270   14.6890 C   0  0  0  0  0  0  0  0  0  0  0  0
   25.1740   21.1560   13.7910 O   0  0  0  0  0  0  0  0  0  0  0  0
   24.0320   17.5000   13.1260 C   0  0  0  0  0  0  0  0  0  0  0  0
   23.0300   17.2440   13.7650 O   0  0  0  0  0  0  0  0  0  0  0  0
   25.3930   15.9510    6.8820 C   0  0  0  0  0  0  0  0  0  0  0  0
   25.9330   15.5070    5.6720 C   0  0  0  0  0  0  0  0  0  0  0  0
   27.0990   14.7710    5.7970 C   0  0  0  0  0  0  0  0  0  0  0  0
   27.8330   14.2190    4.7940 O   0  0  0  0  0  0  0  0  0  0  0  0
   28.8560    9.9650    6.4290 C   0  0  0  0  0  0  0  0  0  0  0  0
   27.8320    9.8300    7.2460 N   0  0  0  0  0  0  0  0  0  0  0  0
   24.7464    9.1845    8.6779 H   0  0  0  0  0  0  0  0  0  0  0  0
   23.8606    9.4192    7.1330 H   0  0  0  0  0  0  0  0  0  0  0  0
   25.4708    8.6230    7.1330 H   0  0  0  0  0  0  0  0  0  0  0  0
   24.8630   11.4005    6.8288 H   0  0  0  0  0  0  0  0  0  0  0  0
   25.6989   11.1787    8.4268 H   0  0  0  0  0  0  0  0  0  0  0  0
   26.7405   12.0296    4.9911 H   0  0  0  0  0  0  0  0  0  0  0  0
   29.5562   13.3412    7.4906 H   0  0  0  0  0  0  0  0  0  0  0  0
   23.5801   15.0373    9.1366 H   0  0  0  0  0  0  0  0  0  0  0  0
   22.6002   15.7603   11.3240 H   0  0  0  0  0  0  0  0  0  0  0  0
   27.1955   17.3045    9.9675 H   0  0  0  0  0  0  0  0  0  0  0  0
   27.0674   17.7749   12.9935 H   0  0  0  0  0  0  0  0  0  0  0  0
   26.5345   19.2132   12.1523 H   0  0  0  0  0  0  0  0  0  0  0  0
   24.3034   18.8061   15.3058 H   0  0  0  0  0  0  0  0  0  0  0  0
   26.0199   17.1518   15.7602 H   0  0  0  0  0  0  0  0  0  0  0  0
   27.2913   18.2694   15.1629 H   0  0  0  0  0  0  0  0  0  0  0  0
   25.4007   18.7417   17.5212 H   0  0  0  0  0  0  0  0  0  0  0  0
   27.1728   18.3835   17.5970 H   0  0  0  0  0  0  0  0  0  0  0  0
   26.5831   21.9487   15.6440 H   0  0  0  0  0  0  0  0  0  0  0  0
   24.4678   16.5460    6.8779 H   0  0  0  0  0  0  0  0  0  0  0  0
   25.4691   15.7247    4.6987 H   0  0  0  0  0  0  0  0  0  0  0  0
   29.8306    9.4714    6.5580 H   0  0  0  0  0  0  0  0  0  0  0  0
  1  2  1  0
  2  3  1  0
  3  4  2  0
  4  5  1  0
  5  6  1  0
  6  7  2  0
  6  8  2  0
  6  9  1  0
  9 10  1  0
 10 11  2  0
 11 12  1  0
 12 13  2  0
 13 14  1  0
 14 15  1  0
 15 16  2  0
 16 17  1  0
 17 18  2  0
 18 19  1  0
 19 20  2  0
 19 21  1  0
 21 22  1  0
 22 23  1  0
 23 24  1  0
 24 25  1  0
 25 26  1  0
 26 27  2  0
 26 28  1  0
 28 29  1  0
 29 30  2  0
 22 31  1  0
 31 32  2  0
 14 33  2  0
 33 34  1  0
 34 35  2  0
 35 36  1  0
  5 37  1  0
 37 38  2  0
 38  3  1  0
 36 10  1  0
 35 12  1  0
 20 15  1  0
 29 23  1  0
 31 18  1  0
  1 39  1  0
  1 40  1  0
  1 41  1  0
  2 42  1  0
  2 43  1  0
  4 44  1  0
 11 45  1  0
 16 46  1  0
 17 47  1  0
 20 48  1  0
 21 49  1  0
 21 50  1  0
 23 51  1  1
 24 52  1  0
 24 53  1  0
 25 54  1  0
 25 55  1  0
 28 56  1  0
 33 57  1  0
 34 58  1  0
 37 59  1  0
M  END
>  <meeko>  (141) 
{"is_sidechain": [true], "free_energy": -14.08, "intermolecular_energy": 0.0, "internal_energy": -14.08, "cluster_size": 20, "cluster_id": 1, "rank_in_cluster": 1}

>  <_RMSD_MCS_to_ref>  (141) 
0.7098389488703275

$$$$
ligand
     RDKit          3D

 63 67  0  0  0  0  0  0  0  0999 V2000
   24.8540    9.4020    7.6050 C   0  0  0  0  0  0  0  0  0  0  0  0
   25.5230   10.7550    7.4270 C   0  0  0  0  0  0  0  0  0  0  0  0
   26.9700   10.6290    7.1000 C   0  0  0  0  0  0  0  0  0  0  0  0
   27.6330   10.9860    5.9430 C   0  0  0  0  0  0  0  0  0  0  0  0
   28.9290   10.6260    6.1750 N   0  0  0  0  0  0  0  0  0  0  0  0
   30.2470   10.9880    5.1960 S   0  0  0  0  0  6  0  0  0  0  0  0
   31.4100   10.5100    5.9230 O   0  0  0  0  0  0  0  0  0  0  0  0
   29.9070   10.4820    3.8810 O   0  0  0  0  0  0  0  0  0  0  0  0
   30.2610   12.7550    5.1700 C   0  0  0  0  0  0  0  0  0  0  0  0
   31.3880   13.4250    4.6970 C   0  0  0  0  0  0  0  0  0  0  0  0
   31.3820   14.8140    4.6720 C   0  0  0  0  0  0  0  0  0  0  0  0
   30.2570   15.5160    5.1170 C   0  0  0  0  0  0  0  0  0  0  0  0
   29.1090   14.8580    5.5890 C   0  0  0  0  0  0  0  0  0  0  0  0
   28.0730   15.6290    6.0960 N   0  0  0  0  0  0  0  0  0  0  0  0
   28.1780   16.4840    7.2680 C   0  0  0  0  0  0  0  0  0  0  0  0
   27.0590   16.2320    8.1820 C   0  0  0  0  0  0  0  0  0  0  0  0
   26.0980   15.9950    8.8620 C   0  0  0  0  0  0  0  0  0  0  0  0
   24.9570   15.8400    9.7070 C   0  0  0  0  0  0  0  0  0  0  0  0
   23.7770   15.2530    9.2320 C   0  0  0  0  0  0  0  0  0  0  0  0
   22.6320   15.1720   10.0490 C   0  0  0  0  0  0  0  0  0  0  0  0
   22.6460   15.6850   11.3470 C   0  0  0  0  0  0  0  0  0  0  0  0
   23.8260   16.2520   11.7920 C   0  0  0  0  0  0  0  0  0  0  0  0
   24.9710   16.3230   11.0040 C   0  0  0  0  0  0  0  0  0  0  0  0
   26.0640   16.9970   11.7580 C   0  0  0  0  0  0  0  0  0  0  0  0
   25.4620   17.2350   13.0640 N   0  0  0  0  0  0  0  0  0  0  0  0
   26.1360   18.0890   14.0390 C   0  0  2  0  0  0  0  0  0  0  0  0
   25.8000   17.7770   15.4960 C   0  0  0  0  0  0  0  0  0  0  0  0
   26.6770   18.6290   16.4020 C   0  0  0  0  0  0  0  0  0  0  0  0
   26.5230   20.1020   16.0950 C   0  0  0  0  0  0  0  0  0  0  0  0
   26.7720   20.9700   16.9280 O   0  0  0  0  0  0  0  0  0  0  0  0
   26.1520   20.4310   14.8170 N   0  0  0  0  0  0  0  0  0  0  0  0
   25.9000   19.5830   13.7610 C   0  0  0  0  0  0  0  0  0  0  0  0
   25.5990   20.0390   12.6580 O   0  0  0  0  0  0  0  0  0  0  0  0
   24.1180   16.8940   13.0800 C   0  0  0  0  0  0  0  0  0  0  0  0
   23.2970   17.0750   13.9570 O   0  0  0  0  0  0  0  0  0  0  0  0
   29.1400   13.4620    5.6320 C   0  0  0  0  0  0  0  0  0  0  0  0
   29.0340   10.1300    7.4350 C   0  0  0  0  0  0  0  0  0  0  0  0
   27.8550   10.1050    8.0210 N   0  0  0  0  0  0  0  0  0  0  0  0
   24.7464    9.1845    8.6779 H   0  0  0  0  0  0  0  0  0  0  0  0
   23.8606    9.4192    7.1330 H   0  0  0  0  0  0  0  0  0  0  0  0
   25.4708    8.6230    7.1330 H   0  0  0  0  0  0  0  0  0  0  0  0
   25.0209   11.2935    6.6098 H   0  0  0  0  0  0  0  0  0  0  0  0
   25.4384   11.3010    8.3782 H   0  0  0  0  0  0  0  0  0  0  0  0
   27.2129   11.4537    5.0404 H   0  0  0  0  0  0  0  0  0  0  0  0
   32.2675   12.8633    4.3493 H   0  0  0  0  0  0  0  0  0  0  0  0
   32.2616   15.3615    4.3024 H   0  0  0  0  0  0  0  0  0  0  0  0
   30.2716   16.6157    5.0968 H   0  0  0  0  0  0  0  0  0  0  0  0
   27.1664   15.5935    5.6085 H   0  0  0  0  0  0  0  0  0  0  0  0
   29.1250   16.2743    7.7868 H   0  0  0  0  0  0  0  0  0  0  0  0
   28.1495   17.5360    6.9479 H   0  0  0  0  0  0  0  0  0  0  0  0
   23.7440   14.8505    8.2088 H   0  0  0  0  0  0  0  0  0  0  0  0
   21.7179   14.6997    9.6600 H   0  0  0  0  0  0  0  0  0  0  0  0
   21.7545   15.6401   11.9898 H   0  0  0  0  0  0  0  0  0  0  0  0
   26.9465   16.3457   11.8421 H   0  0  0  0  0  0  0  0  0  0  0  0
   26.4235   17.9160   11.2721 H   0  0  0  0  0  0  0  0  0  0  0  0
   27.2025   17.8557   13.9040 H   0  0  0  0  0  0  0  0  0  0  0  0
   24.7411   18.0056   15.6871 H   0  0  0  0  0  0  0  0  0  0  0  0
   25.9824   16.7113   15.6987 H   0  0  0  0  0  0  0  0  0  0  0  0
   26.3902   18.4499   17.4487 H   0  0  0  0  0  0  0  0  0  0  0  0
   27.7266   18.3481   16.2306 H   0  0  0  0  0  0  0  0  0  0  0  0
   26.0489   21.4371   14.6221 H   0  0  0  0  0  0  0  0  0  0  0  0
   28.2763   12.9108    6.0324 H   0  0  0  0  0  0  0  0  0  0  0  0
   29.9728    9.7958    7.9009 H   0  0  0  0  0  0  0  0  0  0  0  0
  1  2  1  0
  2  3  1  0
  3  4  2  0
  4  5  1  0
  5  6  1  0
  6  7  2  0
  6  8  2  0
  6  9  1  0
  9 10  2  0
 10 11  1  0
 11 12  2  0
 12 13  1  0
 13 14  1  0
 14 15  1  0
 15 16  1  0
 16 17  3  0
 17 18  1  0
 18 19  2  0
 19 20  1  0
 20 21  2  0
 21 22  1  0
 22 23  2  0
 23 24  1  0
 24 25  1  0
 25 26  1  0
 26 27  1  0
 27 28  1  0
 28 29  1  0
 29 30  2  0
 29 31  1  0
 31 32  1  0
 32 33  2  0
 25 34  1  0
 34 35  2  0
 13 36  2  0
  5 37  1  0
 37 38  2  0
 38  3  1  0
 36  9  1  0
 23 18  1  0
 32 26  1  0
 34 22  1  0
  1 39  1  0
  1 40  1  0
  1 41  1  0
  2 42  1  0
  2 43  1  0
  4 44  1  0
 10 45  1  0
 11 46  1  0
 12 47  1  0
 14 48  1  0
 15 49  1  0
 15 50  1  0
 19 51  1  0
 20 52  1  0
 21 53  1  0
 24 54  1  0
 24 55  1  0
 26 56  1  1
 27 57  1  0
 27 58  1  0
 28 59  1  0
 28 60  1  0
 31 61  1  0
 36 62  1  0
 37 63  1  0
M  END
>  <meeko>  (142) 
{"is_sidechain": [true], "free_energy": -14.07, "intermolecular_energy": 0.0, "internal_energy": -14.07, "cluster_size": 7, "cluster_id": 2, "rank_in_cluster": 1}

>  <_RMSD_MCS_to_ref>  (142) 
0.9572516794332495

$$$$
ligand
     RDKit          3D

 63 68  0  0  0  0  0  0  0  0999 V2000
   24.8540    9.4020    7.6050 C   0  0  0  0  0  0  0  0  0  0  0  0
   25.5230   10.7550    7.4270 C   0  0  0  0  0  0  0  0  0  0  0  0
   26.9550   10.6280    7.0430 C   0  0  0  0  0  0  0  0  0  0  0  0
   27.5510   10.8850    5.8240 C   0  0  0  0  0  0  0  0  0  0  0  0
   28.8700   10.5990    6.0300 N   0  0  0  0  0  0  0  0  0  0  0  0
   30.1330   10.9280    4.9700 S   0  0  0  0  0  6  0  0  0  0  0  0
   31.3390   10.5540    5.6850 O   0  0  0  0  0  0  0  0  0  0  0  0
   29.7650   10.3300    3.7020 O   0  0  0  0  0  0  0  0  0  0  0  0
   30.0950   12.6900    4.7930 C   0  0  0  0  0  0  0  0  0  0  0  0
   30.9860   13.3200    3.9220 C   0  0  0  0  0  0  0  0  0  0  0  0
   30.9520   14.7090    3.7970 C   0  0  0  0  0  0  0  0  0  0  0  0
   30.0330   15.4650    4.5320 C   0  0  0  0  0  0  0  0  0  0  0  0
   29.1300   14.8310    5.3990 C   0  0  0  0  0  0  0  0  0  0  0  0
   28.1850   15.5760    6.1600 N   0  0  0  0  0  0  0  0  0  0  0  0
   27.8430   15.4200    7.4870 C   0  0  0  0  0  0  0  0  0  0  0  0
   26.8810   16.3630    7.7800 C   0  0  0  0  0  0  0  0  0  0  0  0
   26.2630   16.5560    9.0810 C   0  0  0  0  0  0  0  0  0  0  0  0
   25.1330   15.7920    9.4630 C   0  0  0  0  0  0  0  0  0  0  0  0
   24.5280   15.9670   10.7110 C   0  0  0  0  0  0  0  0  0  0  0  0
   25.0730   16.9180   11.5510 C   0  0  0  0  0  0  0  0  0  0  0  0
   26.1820   17.6840   11.2010 C   0  0  0  0  0  0  0  0  0  0  0  0
   26.7880   17.5130    9.9670 C   0  0  0  0  0  0  0  0  0  0  0  0
   26.5450   18.5920   12.3270 C   0  0  0  0  0  0  0  0  0  0  0  0
   25.4770   18.3560   13.2890 N   0  0  0  0  0  0  0  0  0  0  0  0
   25.5510   18.8830   14.6480 C   0  0  1  0  0  0  0  0  0  0  0  0
   26.6580   18.2530   15.4930 C   0  0  0  0  0  0  0  0  0  0  0  0
   26.6060   18.8270   16.9010 C   0  0  0  0  0  0  0  0  0  0  0  0
   26.7170   20.3330   16.8820 C   0  0  0  0  0  0  0  0  0  0  0  0
   27.1110   20.9710   17.8550 O   0  0  0  0  0  0  0  0  0  0  0  0
   26.2760   20.9720   15.7510 N   0  0  0  0  0  0  0  0  0  0  0  0
   25.6790   20.4140   14.6440 C   0  0  0  0  0  0  0  0  0  0  0  0
   25.1910   21.1330   13.7730 O   0  0  0  0  0  0  0  0  0  0  0  0
   24.6570   17.3060   12.9030 C   0  0  0  0  0  0  0  0  0  0  0  0
   23.7670   16.7680   13.5320 O   0  0  0  0  0  0  0  0  0  0  0  0
   26.7040   17.0520    6.5640 C   0  0  0  0  0  0  0  0  0  0  0  0
   27.4780   16.5820    5.5850 N   0  0  0  0  0  0  0  0  0  0  0  0
   29.1590   13.4330    5.5220 C   0  0  0  0  0  0  0  0  0  0  0  0
   29.0490   10.2280    7.3240 C   0  0  0  0  0  0  0  0  0  0  0  0
   27.9000   10.2240    7.9670 N   0  0  0  0  0  0  0  0  0  0  0  0
   24.7464    9.1845    8.6779 H   0  0  0  0  0  0  0  0  0  0  0  0
   23.8606    9.4192    7.1330 H   0  0  0  0  0  0  0  0  0  0  0  0
   25.4708    8.6230    7.1330 H   0  0  0  0  0  0  0  0  0  0  0  0
   24.9932   11.3113    6.6397 H   0  0  0  0  0  0  0  0  0  0  0  0
   25.4775   11.2835    8.3906 H   0  0  0  0  0  0  0  0  0  0  0  0
   27.0726   11.2391    4.8989 H   0  0  0  0  0  0  0  0  0  0  0  0
   31.7073   12.7272    3.3404 H   0  0  0  0  0  0  0  0  0  0  0  0
   31.6529   15.2133    3.1155 H   0  0  0  0  0  0  0  0  0  0  0  0
   30.0181   16.5602    4.4301 H   0  0  0  0  0  0  0  0  0  0  0  0
   28.2612   14.6788    8.1840 H   0  0  0  0  0  0  0  0  0  0  0  0
   24.7239   15.0471    8.7646 H   0  0  0  0  0  0  0  0  0  0  0  0
   23.6534   15.3714   11.0117 H   0  0  0  0  0  0  0  0  0  0  0  0
   27.6643   18.1153    9.6854 H   0  0  0  0  0  0  0  0  0  0  0  0
   27.5251   18.3264   12.7500 H   0  0  0  0  0  0  0  0  0  0  0  0
   26.6341   19.6460   12.0251 H   0  0  0  0  0  0  0  0  0  0  0  0
   24.6009   18.6027   15.1262 H   0  0  0  0  0  0  0  0  0  0  0  0
   26.5129   17.1634   15.5350 H   0  0  0  0  0  0  0  0  0  0  0  0
   27.6364   18.4740   15.0415 H   0  0  0  0  0  0  0  0  0  0  0  0
   25.6517   18.5436   17.3689 H   0  0  0  0  0  0  0  0  0  0  0  0
   27.4540   18.4227   17.4732 H   0  0  0  0  0  0  0  0  0  0  0  0
   26.4078   21.9933   15.7277 H   0  0  0  0  0  0  0  0  0  0  0  0
   26.0018   17.8889    6.4357 H   0  0  0  0  0  0  0  0  0  0  0  0
   28.4485   12.9229    6.1891 H   0  0  0  0  0  0  0  0  0  0  0  0
   30.0189    9.9671    7.7726 H   0  0  0  0  0  0  0  0  0  0  0  0
  1  2  1  0
  2  3  1  0
  3  4  2  0
  4  5  1  0
  5  6  1  0
  6  7  2  0
  6  8  2  0
  6  9  1  0
  9 10  2  0
 10 11  1  0
 11 12  2  0
 12 13  1  0
 13 14  1  0
 14 15  1  0
 15 16  2  0
 16 17  1  0
 17 18  2  0
 18 19  1  0
 19 20  2  0
 20 21  1  0
 21 22  2  0
 21 23  1  0
 23 24  1  0
 24 25  1  0
 25 26  1  0
 26 27  1  0
 27 28  1  0
 28 29  2  0
 28 30  1  0
 30 31  1  0
 31 32  2  0
 24 33  1  0
 33 34  2  0
 16 35  1  0
 35 36  2  0
 13 37  2  0
  5 38  1  0
 38 39  2  0
 39  3  1  0
 37  9  1  0
 36 14  1  0
 22 17  1  0
 31 25  1  0
 33 20  1  0
  1 40  1  0
  1 41  1  0
  1 42  1  0
  2 43  1  0
  2 44  1  0
  4 45  1  0
 10 46  1  0
 11 47  1  0
 12 48  1  0
 15 49  1  0
 18 50  1  0
 19 51  1  0
 22 52  1  0
 23 53  1  0
 23 54  1  0
 25 55  1  1
 26 56  1  0
 26 57  1  0
 27 58  1  0
 27 59  1  0
 30 60  1  0
 35 61  1  0
 37 62  1  0
 38 63  1  0
M  END
>  <meeko>  (143) 
{"is_sidechain": [true], "free_energy": -14.07, "intermolecular_energy": 0.0, "internal_energy": -14.07, "cluster_size": 20, "cluster_id": 1, "rank_in_cluster": 1}

>  <_RMSD_MCS_to_ref>  (143) 
0.7852851569829756

$$$$
ligand
     RDKit          3D

 59 64  0  0  0  0  0  0  0  0999 V2000
   24.8710    9.6160    7.7820 C   0  0  0  0  0  0  0  0  0  0  0  0
   25.4240   10.9650    7.3490 C   0  0  0  0  0  0  0  0  0  0  0  0
   26.6770   11.3170    8.0710 C   0  0  0  0  0  0  0  0  0  0  0  0
   27.9410   11.5480    7.5620 C   0  0  0  0  0  0  0  0  0  0  0  0
   28.7020   11.8070    8.6660 N   0  0  0  0  0  0  0  0  0  0  0  0
   30.3130   12.2900    8.6560 S   0  0  0  0  0  6  0  0  0  0  0  0
   30.5530   12.7170   10.0220 O   0  0  0  0  0  0  0  0  0  0  0  0
   31.0590   11.1880    8.0780 O   0  0  0  0  0  0  0  0  0  0  0  0
   30.4690   13.5930    7.7080 O   0  0  0  0  0  0  0  0  0  0  0  0
   29.4450   14.2450    7.1400 C   0  0  0  0  0  0  0  0  0  0  0  0
   29.6320   14.2290    5.6690 C   0  0  0  0  0  0  0  0  0  0  0  0
   28.6650   14.8540    4.9830 C   0  0  0  0  0  0  0  0  0  0  0  0
   27.5990   15.4530    5.6480 N   0  0  0  0  0  0  0  0  0  0  0  0
   26.5580   16.1060    5.0890 N   0  0  0  0  0  0  0  0  0  0  0  0
   25.8080   16.4760    6.1260 C   0  0  0  0  0  0  0  0  0  0  0  0
   26.3450   16.0850    7.3720 C   0  0  0  0  0  0  0  0  0  0  0  0
   25.8080   16.3050    8.7050 C   0  0  0  0  0  0  0  0  0  0  0  0
   24.6080   15.6550    9.0850 C   0  0  0  0  0  0  0  0  0  0  0  0
   24.0260   15.8780   10.3380 C   0  0  0  0  0  0  0  0  0  0  0  0
   24.6660   16.7590   11.1850 C   0  0  0  0  0  0  0  0  0  0  0  0
   25.8530   17.4020   10.8430 C   0  0  0  0  0  0  0  0  0  0  0  0
   26.4350   17.1860    9.6030 C   0  0  0  0  0  0  0  0  0  0  0  0
   26.3070   18.2710   11.9690 C   0  0  0  0  0  0  0  0  0  0  0  0
   25.2210   18.1290   12.9320 N   0  0  0  0  0  0  0  0  0  0  0  0
   25.2850   18.6470   14.2950 C   0  0  1  0  0  0  0  0  0  0  0  0
   26.3490   17.9120   15.1110 C   0  0  0  0  0  0  0  0  0  0  0  0
   26.3160   18.3960   16.5510 C   0  0  0  0  0  0  0  0  0  0  0  0
   26.5000   19.8920   16.6310 C   0  0  0  0  0  0  0  0  0  0  0  0
   27.0180   20.4400   17.6000 O   0  0  0  0  0  0  0  0  0  0  0  0
   26.0150   20.6270   15.5790 N   0  0  0  0  0  0  0  0  0  0  0  0
   25.5190   20.1650   14.3810 C   0  0  0  0  0  0  0  0  0  0  0  0
   25.2470   20.9610   13.4840 O   0  0  0  0  0  0  0  0  0  0  0  0
   24.2840   17.1910   12.5340 C   0  0  0  0  0  0  0  0  0  0  0  0
   23.3330   16.7670   13.1620 O   0  0  0  0  0  0  0  0  0  0  0  0
   27.5180   15.4210    7.0520 C   0  0  0  0  0  0  0  0  0  0  0  0
   28.4840   14.7970    7.8100 N   0  0  0  0  0  0  0  0  0  0  0  0
   27.9130   11.7920    9.7690 C   0  0  0  0  0  0  0  0  0  0  0  0
   26.6770   11.4700    9.4450 N   0  0  0  0  0  0  0  0  0  0  0  0
   24.8497    9.5640    8.8806 H   0  0  0  0  0  0  0  0  0  0  0  0
   23.8507    9.4948    7.3893 H   0  0  0  0  0  0  0  0  0  0  0  0
   25.5127    8.8135    7.3893 H   0  0  0  0  0  0  0  0  0  0  0  0
   25.6344   10.9317    6.2698 H   0  0  0  0  0  0  0  0  0  0  0  0
   24.6709   11.7307    7.5866 H   0  0  0  0  0  0  0  0  0  0  0  0
   28.2606   11.5279    6.5096 H   0  0  0  0  0  0  0  0  0  0  0  0
   30.4916   13.7452    5.1821 H   0  0  0  0  0  0  0  0  0  0  0  0
   28.7142   14.8939    3.8848 H   0  0  0  0  0  0  0  0  0  0  0  0
   24.8640   17.0310    6.0219 H   0  0  0  0  0  0  0  0  0  0  0  0
   24.1242   14.9615    8.3814 H   0  0  0  0  0  0  0  0  0  0  0  0
   23.0960   15.3714   10.6354 H   0  0  0  0  0  0  0  0  0  0  0  0
   27.3704   17.6949    9.3271 H   0  0  0  0  0  0  0  0  0  0  0  0
   27.2595   17.9142   12.3879 H   0  0  0  0  0  0  0  0  0  0  0  0
   26.4968   19.3128   11.6711 H   0  0  0  0  0  0  0  0  0  0  0  0
   24.2886   18.4596   14.7217 H   0  0  0  0  0  0  0  0  0  0  0  0
   26.1481   16.8308   15.0841 H   0  0  0  0  0  0  0  0  0  0  0  0
   27.3413   18.1145   14.6816 H   0  0  0  0  0  0  0  0  0  0  0  0
   25.3460   18.1299   16.9963 H   0  0  0  0  0  0  0  0  0  0  0  0
   27.1403   17.9150   17.0980 H   0  0  0  0  0  0  0  0  0  0  0  0
   26.0230   21.6498   15.7005 H   0  0  0  0  0  0  0  0  0  0  0  0
   28.2563   12.0168   10.7896 H   0  0  0  0  0  0  0  0  0  0  0  0
  1  2  1  0
  2  3  1  0
  3  4  2  0
  4  5  1  0
  5  6  1  0
  6  7  2  0
  6  8  2  0
  6  9  1  0
  9 10  1  0
 10 11  1  0
 11 12  2  0
 12 13  1  0
 13 14  1  0
 14 15  2  0
 15 16  1  0
 16 17  1  0
 17 18  2  0
 18 19  1  0
 19 20  2  0
 20 21  1  0
 21 22  2  0
 21 23  1  0
 23 24  1  0
 24 25  1  0
 25 26  1  0
 26 27  1  0
 27 28  1  0
 28 29  2  0
 28 30  1  0
 30 31  1  0
 31 32  2  0
 24 33  1  0
 33 34  2  0
 16 35  2  0
 35 36  1  0
  5 37  1  0
 37 38  2  0
 38  3  1  0
 36 10  2  0
 35 13  1  0
 22 17  1  0
 31 25  1  0
 33 20  1  0
  1 39  1  0
  1 40  1  0
  1 41  1  0
  2 42  1  0
  2 43  1  0
  4 44  1  0
 11 45  1  0
 12 46  1  0
 15 47  1  0
 18 48  1  0
 19 49  1  0
 22 50  1  0
 23 51  1  0
 23 52  1  0
 25 53  1  1
 26 54  1  0
 26 55  1  0
 27 56  1  0
 27 57  1  0
 30 58  1  0
 37 59  1  0
M  END
>  <meeko>  (144) 
{"is_sidechain": [true], "free_energy": -14.06, "intermolecular_energy": 0.0, "internal_energy": -14.06, "cluster_size": 19, "cluster_id": 1, "rank_in_cluster": 1}

>  <_RMSD_MCS_to_ref>  (144) 
0.8070580100457138

$$$$
ligand
     RDKit          3D

 64 69  0  0  0  0  0  0  0  0999 V2000
   24.8540    9.4020    7.6050 C   0  0  0  0  0  0  0  0  0  0  0  0
   25.5230   10.7550    7.4270 C   0  0  0  0  0  0  0  0  0  0  0  0
   27.0080   10.6490    7.4030 C   0  0  0  0  0  0  0  0  0  0  0  0
   27.9360   11.5630    6.9450 C   0  0  0  0  0  0  0  0  0  0  0  0
   29.1380   10.9450    7.1380 N   0  0  0  0  0  0  0  0  0  0  0  0
   30.6540   11.6460    6.9570 S   0  0  0  0  0  6  0  0  0  0  0  0
   30.5630   12.5010    5.7900 O   0  0  0  0  0  0  0  0  0  0  0  0
   31.6010   10.5490    7.0350 O   0  0  0  0  0  0  0  0  0  0  0  0
   30.8300   12.6500    8.4040 C   0  0  0  0  0  0  0  0  0  0  0  0
   31.9280   12.4370    9.2510 C   0  0  0  0  0  0  0  0  0  0  0  0
   32.0960   13.2170   10.4060 C   0  0  0  0  0  0  0  0  0  0  0  0
   31.1770   14.2160   10.7260 C   0  0  0  0  0  0  0  0  0  0  0  0
   30.1030   14.4250    9.8740 C   0  0  0  0  0  0  0  0  0  0  0  0
   29.9250   13.6570    8.7140 C   0  0  0  0  0  0  0  0  0  0  0  0
   28.7100   14.1320    7.9800 C   0  0  0  0  0  0  0  0  0  0  0  0
   28.1420   15.1450    8.8660 N   0  0  0  0  0  0  0  0  0  0  0  0
   27.0650   15.8930    8.4410 C   0  0  0  0  0  0  0  0  0  0  0  0
   27.1210   16.6940    7.5130 O   0  0  0  0  0  0  0  0  0  0  0  0
   25.7850   15.7610    9.1640 C   0  0  0  0  0  0  0  0  0  0  0  0
   24.7100   15.0350    8.6300 C   0  0  0  0  0  0  0  0  0  0  0  0
   23.5010   14.9230    9.3410 C   0  0  0  0  0  0  0  0  0  0  0  0
   23.3490   15.5430   10.5830 C   0  0  0  0  0  0  0  0  0  0  0  0
   24.4180   16.2770   11.0660 C   0  0  0  0  0  0  0  0  0  0  0  0
   25.6200   16.4040   10.3780 C   0  0  0  0  0  0  0  0  0  0  0  0
   26.5720   17.2530   11.1500 C   0  0  0  0  0  0  0  0  0  0  0  0
   25.7780   17.6310   12.3150 N   0  0  0  0  0  0  0  0  0  0  0  0
   26.3530   18.2340   13.5110 C   0  0  2  0  0  0  0  0  0  0  0  0
   25.9600   17.4970   14.7880 C   0  0  0  0  0  0  0  0  0  0  0  0
   26.6650   18.1330   15.9760 C   0  0  0  0  0  0  0  0  0  0  0  0
   26.3680   19.6120   16.0620 C   0  0  0  0  0  0  0  0  0  0  0  0
   26.2690   20.2010   17.1340 O   0  0  0  0  0  0  0  0  0  0  0  0
   26.2350   20.2830   14.8730 N   0  0  0  0  0  0  0  0  0  0  0  0
   25.9630   19.7160   13.6490 C   0  0  0  0  0  0  0  0  0  0  0  0
   25.4430   20.3830   12.7570 O   0  0  0  0  0  0  0  0  0  0  0  0
   24.5340   17.0190   12.3260 C   0  0  0  0  0  0  0  0  0  0  0  0
   23.6860   17.0560   13.1950 O   0  0  0  0  0  0  0  0  0  0  0  0
   29.0080   15.4330   10.0100 C   0  0  0  0  0  0  0  0  0  0  0  0
   28.9290    9.7360    7.7180 C   0  0  0  0  0  0  0  0  0  0  0  0
   27.6410    9.5230    7.8910 N   0  0  0  0  0  0  0  0  0  0  0  0
   24.7464    9.1845    8.6779 H   0  0  0  0  0  0  0  0  0  0  0  0
   23.8606    9.4192    7.1330 H   0  0  0  0  0  0  0  0  0  0  0  0
   25.4708    8.6230    7.1330 H   0  0  0  0  0  0  0  0  0  0  0  0
   25.1839   11.1958    6.4780 H   0  0  0  0  0  0  0  0  0  0  0  0
   25.2431   11.3856    8.2837 H   0  0  0  0  0  0  0  0  0  0  0  0
   27.7495   12.5609    6.5215 H   0  0  0  0  0  0  0  0  0  0  0  0
   32.6617   11.6541    9.0086 H   0  0  0  0  0  0  0  0  0  0  0  0
   32.9594   13.0388   11.0639 H   0  0  0  0  0  0  0  0  0  0  0  0
   31.3013   14.8245   11.6339 H   0  0  0  0  0  0  0  0  0  0  0  0
   28.9849   14.5701    7.0092 H   0  0  0  0  0  0  0  0  0  0  0  0
   28.0038   13.3191    7.7550 H   0  0  0  0  0  0  0  0  0  0  0  0
   24.8130   14.5497    7.6482 H   0  0  0  0  0  0  0  0  0  0  0  0
   22.6692   14.3426    8.9153 H   0  0  0  0  0  0  0  0  0  0  0  0
   22.4145   15.4513   11.1559 H   0  0  0  0  0  0  0  0  0  0  0  0
   27.4653   16.6828   11.4448 H   0  0  0  0  0  0  0  0  0  0  0  0
   26.9562   18.1126   10.5813 H   0  0  0  0  0  0  0  0  0  0  0  0
   27.4426   18.1540   13.3834 H   0  0  0  0  0  0  0  0  0  0  0  0
   24.8711   17.5627   14.9293 H   0  0  0  0  0  0  0  0  0  0  0  0
   26.2555   16.4405   14.7081 H   0  0  0  0  0  0  0  0  0  0  0  0
   26.3224   17.6442   16.8999 H   0  0  0  0  0  0  0  0  0  0  0  0
   27.7496   18.0032   15.8468 H   0  0  0  0  0  0  0  0  0  0  0  0
   26.3493   21.3063   14.8988 H   0  0  0  0  0  0  0  0  0  0  0  0
   29.4059   16.4570    9.9552 H   0  0  0  0  0  0  0  0  0  0  0  0
   28.4826   15.3706   10.9744 H   0  0  0  0  0  0  0  0  0  0  0  0
   29.7245    9.0321    8.0038 H   0  0  0  0  0  0  0  0  0  0  0  0
  1  2  1  0
  2  3  1  0
  3  4  2  0
  4  5  1  0
  5  6  1  0
  6  7  2  0
  6  8  2  0
  6  9  1  0
  9 10  2  0
 10 11  1  0
 11 12  2  0
 12 13  1  0
 13 14  2  0
 14 15  1  0
 15 16  1  0
 16 17  1  0
 17 18  2  0
 17 19  1  0
 19 20  2  0
 20 21  1  0
 21 22  2  0
 22 23  1  0
 23 24  2  0
 24 25  1  0
 25 26  1  0
 26 27  1  0
 27 28  1  0
 28 29  1  0
 29 30  1  0
 30 31  2  0
 30 32  1  0
 32 33  1  0
 33 34  2  0
 26 35  1  0
 35 36  2  0
 16 37  1  0
  5 38  1  0
 38 39  2  0
 39  3  1  0
 14  9  1  0
 24 19  1  0
 33 27  1  0
 37 13  1  0
 35 23  1  0
  1 40  1  0
  1 41  1  0
  1 42  1  0
  2 43  1  0
  2 44  1  0
  4 45  1  0
 10 46  1  0
 11 47  1  0
 12 48  1  0
 15 49  1  0
 15 50  1  0
 20 51  1  0
 21 52  1  0
 22 53  1  0
 25 54  1  0
 25 55  1  0
 27 56  1  6
 28 57  1  0
 28 58  1  0
 29 59  1  0
 29 60  1  0
 32 61  1  0
 37 62  1  0
 37 63  1  0
 38 64  1  0
M  END
>  <meeko>  (145) 
{"is_sidechain": [true], "free_energy": -14.05, "intermolecular_energy": 0.0, "internal_energy": -14.05, "cluster_size": 14, "cluster_id": 1, "rank_in_cluster": 1}

>  <_RMSD_MCS_to_ref>  (145) 
1.1873142427812071

$$$$
ligand
     RDKit          3D

 60 65  0  0  0  0  0  0  0  0999 V2000
   24.8540    9.4020    7.6050 C   0  0  0  0  0  0  0  0  0  0  0  0
   25.5230   10.7550    7.4270 C   0  0  0  0  0  0  0  0  0  0  0  0
   25.1650   11.3910    6.1300 C   0  0  0  0  0  0  0  0  0  0  0  0
   24.5890   12.6250    5.8990 C   0  0  0  0  0  0  0  0  0  0  0  0
   24.5220   12.7110    4.5380 N   0  0  0  0  0  0  0  0  0  0  0  0
   23.7330   13.9200    3.6720 S   0  0  0  0  0  6  0  0  0  0  0  0
   24.1630   13.7850    2.2920 O   0  0  0  0  0  0  0  0  0  0  0  0
   22.3360   13.7190    4.0190 O   0  0  0  0  0  0  0  0  0  0  0  0
   24.1720   15.3780    4.2700 O   0  0  0  0  0  0  0  0  0  0  0  0
   25.1590   15.4770    5.2190 C   0  0  0  0  0  0  0  0  0  0  0  0
   24.8070   15.7510    6.5590 C   0  0  0  0  0  0  0  0  0  0  0  0
   25.7560   15.8500    7.6420 C   0  0  0  0  0  0  0  0  0  0  0  0
   25.2640   16.1640    8.9970 C   0  0  0  0  0  0  0  0  0  0  0  0
   24.0930   15.5420    9.4970 C   0  0  0  0  0  0  0  0  0  0  0  0
   23.6100   15.8200   10.7790 C   0  0  0  0  0  0  0  0  0  0  0  0
   24.3170   16.7270   11.5400 C   0  0  0  0  0  0  0  0  0  0  0  0
   25.4720   17.3530   11.0810 C   0  0  0  0  0  0  0  0  0  0  0  0
   25.9580   17.0810    9.8130 C   0  0  0  0  0  0  0  0  0  0  0  0
   26.0200   18.2460   12.1420 C   0  0  0  0  0  0  0  0  0  0  0  0
   25.0110   18.1590   13.1890 N   0  0  0  0  0  0  0  0  0  0  0  0
   25.2480   18.7140   14.5170 C   0  0  1  0  0  0  0  0  0  0  0  0
   26.3260   17.9760   15.3090 C   0  0  0  0  0  0  0  0  0  0  0  0
   26.4480   18.5940   16.6930 C   0  0  0  0  0  0  0  0  0  0  0  0
   26.7470   20.0730   16.6080 C   0  0  0  0  0  0  0  0  0  0  0  0
   27.2870   20.6850   17.5240 O   0  0  0  0  0  0  0  0  0  0  0  0
   26.3080   20.7270   15.4840 N   0  0  0  0  0  0  0  0  0  0  0  0
   25.5650   20.2160   14.4440 C   0  0  0  0  0  0  0  0  0  0  0  0
   25.1100   20.9650   13.5800 O   0  0  0  0  0  0  0  0  0  0  0  0
   24.0520   17.1980   12.9040 C   0  0  0  0  0  0  0  0  0  0  0  0
   23.1610   16.7820   13.6170 O   0  0  0  0  0  0  0  0  0  0  0  0
   27.1490   15.6550    7.4400 C   0  0  0  0  0  0  0  0  0  0  0  0
   27.4540   15.3610    6.1160 C   0  0  0  0  0  0  0  0  0  0  0  0
   28.7030   15.1090    5.6230 C   0  0  0  0  0  0  0  0  0  0  0  0
   28.5050   14.8650    4.2930 N   0  0  0  0  0  0  0  0  0  0  0  0
   27.2150   14.9310    3.9040 N   0  0  0  0  0  0  0  0  0  0  0  0
   26.5340   15.2600    5.0140 C   0  0  0  0  0  0  0  0  0  0  0  0
   24.9520   11.5420    3.9970 C   0  0  0  0  0  0  0  0  0  0  0  0
   25.3830   10.7270    4.9390 N   0  0  0  0  0  0  0  0  0  0  0  0
   24.7464    9.1845    8.6779 H   0  0  0  0  0  0  0  0  0  0  0  0
   23.8606    9.4192    7.1330 H   0  0  0  0  0  0  0  0  0  0  0  0
   25.4708    8.6230    7.1330 H   0  0  0  0  0  0  0  0  0  0  0  0
   25.2065   11.4175    8.2461 H   0  0  0  0  0  0  0  0  0  0  0  0
   26.6117   10.5983    7.4380 H   0  0  0  0  0  0  0  0  0  0  0  0
   24.2600   13.3676    6.6408 H   0  0  0  0  0  0  0  0  0  0  0  0
   23.7421   15.8983    6.7921 H   0  0  0  0  0  0  0  0  0  0  0  0
   23.5522   14.8246    8.8623 H   0  0  0  0  0  0  0  0  0  0  0  0
   22.7018   15.3344   11.1655 H   0  0  0  0  0  0  0  0  0  0  0  0
   26.8716   17.5729    9.4479 H   0  0  0  0  0  0  0  0  0  0  0  0
   26.9950   17.8839   12.5001 H   0  0  0  0  0  0  0  0  0  0  0  0
   26.2009   19.2742   11.7956 H   0  0  0  0  0  0  0  0  0  0  0  0
   24.3072   18.5711   15.0688 H   0  0  0  0  0  0  0  0  0  0  0  0
   26.0504   16.9153   15.4037 H   0  0  0  0  0  0  0  0  0  0  0  0
   27.2890   18.0582   14.7837 H   0  0  0  0  0  0  0  0  0  0  0  0
   25.5015   18.4501   17.2347 H   0  0  0  0  0  0  0  0  0  0  0  0
   27.2771   18.1014   17.2220 H   0  0  0  0  0  0  0  0  0  0  0  0
   26.5660   21.7214   15.4096 H   0  0  0  0  0  0  0  0  0  0  0  0
   27.9003   15.7283    8.2401 H   0  0  0  0  0  0  0  0  0  0  0  0
   29.6553   15.1037    6.1736 H   0  0  0  0  0  0  0  0  0  0  0  0
   29.2746   14.6492    3.6434 H   0  0  0  0  0  0  0  0  0  0  0  0
   24.9420   11.3078    2.9223 H   0  0  0  0  0  0  0  0  0  0  0  0
  1  2  1  0
  2  3  1  0
  3  4  2  0
  4  5  1  0
  5  6  1  0
  6  7  2  0
  6  8  2  0
  6  9  1  0
  9 10  1  0
 10 11  2  0
 11 12  1  0
 12 13  1  0
 13 14  2  0
 14 15  1  0
 15 16  2  0
 16 17  1  0
 17 18  2  0
 17 19  1  0
 19 20  1  0
 20 21  1  0
 21 22  1  0
 22 23  1  0
 23 24  1  0
 24 25  2  0
 24 26  1  0
 26 27  1  0
 27 28  2  0
 20 29  1  0
 29 30  2  0
 12 31  2  0
 31 32  1  0
 32 33  2  0
 33 34  1  0
 34 35  1  0
 35 36  2  0
  5 37  1  0
 37 38  2  0
 38  3  1  0
 36 10  1  0
 18 13  1  0
 27 21  1  0
 36 32  1  0
 29 16  1  0
  1 39  1  0
  1 40  1  0
  1 41  1  0
  2 42  1  0
  2 43  1  0
  4 44  1  0
 11 45  1  0
 14 46  1  0
 15 47  1  0
 18 48  1  0
 19 49  1  0
 19 50  1  0
 21 51  1  1
 22 52  1  0
 22 53  1  0
 23 54  1  0
 23 55  1  0
 26 56  1  0
 31 57  1  0
 33 58  1  0
 34 59  1  0
 37 60  1  0
M  END
>  <meeko>  (146) 
{"is_sidechain": [true], "free_energy": -14.04, "intermolecular_energy": 0.0, "internal_energy": -14.04, "cluster_size": 15, "cluster_id": 1, "rank_in_cluster": 1}

>  <_RMSD_MCS_to_ref>  (146) 
0.4964585693802763

$$$$
ligand
     RDKit          3D

 61 66  0  0  0  0  0  0  0  0999 V2000
   24.8540    9.4020    7.6050 C   0  0  0  0  0  0  0  0  0  0  0  0
   25.5230   10.7550    7.4270 C   0  0  0  0  0  0  0  0  0  0  0  0
   25.4990   11.2130    6.0110 C   0  0  0  0  0  0  0  0  0  0  0  0
   24.6420   12.1070    5.4000 C   0  0  0  0  0  0  0  0  0  0  0  0
   25.0470   12.1230    4.0960 N   0  0  0  0  0  0  0  0  0  0  0  0
   24.5420   13.2240    2.9240 S   0  0  0  0  0  6  0  0  0  0  0  0
   24.6810   12.5140    1.6660 O   0  0  0  0  0  0  0  0  0  0  0  0
   23.2550   13.6980    3.3950 O   0  0  0  0  0  0  0  0  0  0  0  0
   25.6170   14.4490    2.9720 O   0  0  0  0  0  0  0  0  0  0  0  0
   26.5930   14.5530    3.9350 C   0  0  0  0  0  0  0  0  0  0  0  0
   27.9500   14.3280    3.7040 C   0  0  0  0  0  0  0  0  0  0  0  0
   28.8570   14.4610    4.7530 C   0  0  0  0  0  0  0  0  0  0  0  0
   28.4090   14.8160    6.0260 C   0  0  0  0  0  0  0  0  0  0  0  0
   27.0670   15.0440    6.2890 C   0  0  0  0  0  0  0  0  0  0  0  0
   26.6980   15.3810    7.5330 N   0  0  0  0  0  0  0  0  0  0  0  0
   25.3890   15.5950    7.7680 C   0  0  0  0  0  0  0  0  0  0  0  0
   24.9830   15.9650    9.1420 C   0  0  0  0  0  0  0  0  0  0  0  0
   23.7060   15.6010    9.6540 C   0  0  0  0  0  0  0  0  0  0  0  0
   23.2970   15.9380   10.9490 C   0  0  0  0  0  0  0  0  0  0  0  0
   24.1870   16.6430   11.7290 C   0  0  0  0  0  0  0  0  0  0  0  0
   25.4450   17.0230   11.2720 C   0  0  0  0  0  0  0  0  0  0  0  0
   25.8520   16.6920    9.9890 C   0  0  0  0  0  0  0  0  0  0  0  0
   26.1640   17.7900   12.3320 C   0  0  0  0  0  0  0  0  0  0  0  0
   25.2380   17.7220   13.4560 N   0  0  0  0  0  0  0  0  0  0  0  0
   25.3760   18.5290   14.6620 C   0  0  1  0  0  0  0  0  0  0  0  0
   26.3240   17.9000   15.6790 C   0  0  0  0  0  0  0  0  0  0  0  0
   26.3450   18.7490   16.9420 C   0  0  0  0  0  0  0  0  0  0  0  0
   26.7180   20.1800   16.6310 C   0  0  0  0  0  0  0  0  0  0  0  0
   27.3950   20.8620   17.3930 O   0  0  0  0  0  0  0  0  0  0  0  0
   26.2450   20.6950   15.4510 N   0  0  0  0  0  0  0  0  0  0  0  0
   25.8520   19.9610   14.3550 C   0  0  0  0  0  0  0  0  0  0  0  0
   25.9030   20.4520   13.2300 O   0  0  0  0  0  0  0  0  0  0  0  0
   24.0350   17.1280   13.1050 C   0  0  0  0  0  0  0  0  0  0  0  0
   23.0310   17.0120   13.7820 O   0  0  0  0  0  0  0  0  0  0  0  0
   24.4270   15.4980    6.8330 N   0  0  0  0  0  0  0  0  0  0  0  0
   24.8340   15.1580    5.5950 C   0  0  0  0  0  0  0  0  0  0  0  0
   26.1550   14.9110    5.2370 C   0  0  0  0  0  0  0  0  0  0  0  0
   26.1470   11.3380    3.9630 C   0  0  0  0  0  0  0  0  0  0  0  0
   26.4350   10.7520    5.1060 N   0  0  0  0  0  0  0  0  0  0  0  0
   24.7464    9.1845    8.6779 H   0  0  0  0  0  0  0  0  0  0  0  0
   23.8606    9.4192    7.1330 H   0  0  0  0  0  0  0  0  0  0  0  0
   25.4708    8.6230    7.1330 H   0  0  0  0  0  0  0  0  0  0  0  0
   24.9961   11.4949    8.0475 H   0  0  0  0  0  0  0  0  0  0  0  0
   26.5753   10.6536    7.7310 H   0  0  0  0  0  0  0  0  0  0  0  0
   23.8204   12.6764    5.8591 H   0  0  0  0  0  0  0  0  0  0  0  0
   28.3017   14.0474    2.7002 H   0  0  0  0  0  0  0  0  0  0  0  0
   29.9287   14.2858    4.5774 H   0  0  0  0  0  0  0  0  0  0  0  0
   29.1396   14.9176    6.8420 H   0  0  0  0  0  0  0  0  0  0  0  0
   23.0169   15.0354    9.0096 H   0  0  0  0  0  0  0  0  0  0  0  0
   22.3051   15.6516   11.3287 H   0  0  0  0  0  0  0  0  0  0  0  0
   26.8473   16.9936    9.6307 H   0  0  0  0  0  0  0  0  0  0  0  0
   27.1259   17.3179   12.5807 H   0  0  0  0  0  0  0  0  0  0  0  0
   26.4158   18.8184   12.0337 H   0  0  0  0  0  0  0  0  0  0  0  0
   24.3667   18.5724   15.0971 H   0  0  0  0  0  0  0  0  0  0  0  0
   25.9781   16.8851   15.9246 H   0  0  0  0  0  0  0  0  0  0  0  0
   27.3373   17.8479   15.2540 H   0  0  0  0  0  0  0  0  0  0  0  0
   25.3468   18.7304   17.4037 H   0  0  0  0  0  0  0  0  0  0  0  0
   27.0972   18.3339   17.6289 H   0  0  0  0  0  0  0  0  0  0  0  0
   26.1781   21.7203   15.3788 H   0  0  0  0  0  0  0  0  0  0  0  0
   24.0671   15.0694    4.8114 H   0  0  0  0  0  0  0  0  0  0  0  0
   26.7172   11.2098    3.0311 H   0  0  0  0  0  0  0  0  0  0  0  0
  1  2  1  0
  2  3  1  0
  3  4  2  0
  4  5  1  0
  5  6  1  0
  6  7  2  0
  6  8  2  0
  6  9  1  0
  9 10  1  0
 10 11  2  0
 11 12  1  0
 12 13  2  0
 13 14  1  0
 14 15  2  0
 15 16  1  0
 16 17  1  0
 17 18  2  0
 18 19  1  0
 19 20  2  0
 20 21  1  0
 21 22  2  0
 21 23  1  0
 23 24  1  0
 24 25  1  0
 25 26  1  0
 26 27  1  0
 27 28  1  0
 28 29  2  0
 28 30  1  0
 30 31  1  0
 31 32  2  0
 24 33  1  0
 33 34  2  0
 16 35  2  0
 35 36  1  0
 36 37  2  0
  5 38  1  0
 38 39  2  0
 39  3  1  0
 37 10  1  0
 37 14  1  0
 22 17  1  0
 31 25  1  0
 33 20  1  0
  1 40  1  0
  1 41  1  0
  1 42  1  0
  2 43  1  0
  2 44  1  0
  4 45  1  0
 11 46  1  0
 12 47  1  0
 13 48  1  0
 18 49  1  0
 19 50  1  0
 22 51  1  0
 23 52  1  0
 23 53  1  0
 25 54  1  1
 26 55  1  0
 26 56  1  0
 27 57  1  0
 27 58  1  0
 30 59  1  0
 36 60  1  0
 38 61  1  0
M  END
>  <meeko>  (147) 
{"is_sidechain": [true], "free_energy": -14.04, "intermolecular_energy": 0.0, "internal_energy": -14.04, "cluster_size": 16, "cluster_id": 1, "rank_in_cluster": 1}

>  <_RMSD_MCS_to_ref>  (147) 
0.6499926495310874

$$$$
ligand
     RDKit          3D

 59 64  0  0  0  0  0  0  0  0999 V2000
   24.8540    9.4020    7.6050 C   0  0  0  0  0  0  0  0  0  0  0  0
   25.5230   10.7550    7.4270 C   0  0  0  0  0  0  0  0  0  0  0  0
   25.4770   11.2220    6.0160 C   0  0  0  0  0  0  0  0  0  0  0  0
   26.4340   11.9140    5.2970 C   0  0  0  0  0  0  0  0  0  0  0  0
   25.8840   12.0450    4.0530 N   0  0  0  0  0  0  0  0  0  0  0  0
   26.5190   12.9670    2.7990 S   0  0  0  0  0  6  0  0  0  0  0  0
   25.3840   13.1810    1.9180 O   0  0  0  0  0  0  0  0  0  0  0  0
   27.6940   12.2600    2.3200 O   0  0  0  0  0  0  0  0  0  0  0  0
   26.9540   14.4330    3.3910 O   0  0  0  0  0  0  0  0  0  0  0  0
   26.1520   15.1300    4.2840 C   0  0  0  0  0  0  0  0  0  0  0  0
   25.1530   15.9000    3.8280 C   0  0  0  0  0  0  0  0  0  0  0  0
   24.3540   16.5960    4.8660 C   0  0  0  0  0  0  0  0  0  0  0  0
   24.5210   16.5130    6.1500 N   0  0  0  0  0  0  0  0  0  0  0  0
   25.5340   15.6920    6.5790 C   0  0  0  0  0  0  0  0  0  0  0  0
   25.9840   15.3360    7.8400 C   0  0  0  0  0  0  0  0  0  0  0  0
   25.4360   15.8040    9.1060 C   0  0  0  0  0  0  0  0  0  0  0  0
   24.1510   15.3700    9.5140 C   0  0  0  0  0  0  0  0  0  0  0  0
   23.5960   15.7860   10.7280 C   0  0  0  0  0  0  0  0  0  0  0  0
   24.3500   16.6370   11.5110 C   0  0  0  0  0  0  0  0  0  0  0  0
   25.6160   17.0770   11.1370 C   0  0  0  0  0  0  0  0  0  0  0  0
   26.1750   16.6650    9.9380 C   0  0  0  0  0  0  0  0  0  0  0  0
   26.1830   17.9590   12.1980 C   0  0  0  0  0  0  0  0  0  0  0  0
   25.0800   18.0720   13.1430 N   0  0  0  0  0  0  0  0  0  0  0  0
   25.2660   18.6820   14.4540 C   0  0  1  0  0  0  0  0  0  0  0  0
   26.3190   17.9830   15.3150 C   0  0  0  0  0  0  0  0  0  0  0  0
   26.3860   18.6580   16.6750 C   0  0  0  0  0  0  0  0  0  0  0  0
   26.6810   20.1340   16.5410 C   0  0  0  0  0  0  0  0  0  0  0  0
   27.1810   20.7870   17.4520 O   0  0  0  0  0  0  0  0  0  0  0  0
   26.2850   20.7380   15.3730 N   0  0  0  0  0  0  0  0  0  0  0  0
   25.5790   20.1810   14.3310 C   0  0  0  0  0  0  0  0  0  0  0  0
   25.1500   20.8920   13.4240 O   0  0  0  0  0  0  0  0  0  0  0  0
   24.0290   17.2280   12.8150 C   0  0  0  0  0  0  0  0  0  0  0  0
   23.0270   16.9810   13.4570 O   0  0  0  0  0  0  0  0  0  0  0  0
   27.0310   14.4230    7.5940 C   0  0  0  0  0  0  0  0  0  0  0  0
   27.2450   14.2040    6.2980 N   0  0  0  0  0  0  0  0  0  0  0  0
   26.3460   15.0010    5.6690 N   0  0  0  0  0  0  0  0  0  0  0  0
   24.6270   11.5320    4.0640 C   0  0  0  0  0  0  0  0  0  0  0  0
   24.3570   10.9970    5.2380 N   0  0  0  0  0  0  0  0  0  0  0  0
   24.7464    9.1845    8.6779 H   0  0  0  0  0  0  0  0  0  0  0  0
   23.8606    9.4192    7.1330 H   0  0  0  0  0  0  0  0  0  0  0  0
   25.4708    8.6230    7.1330 H   0  0  0  0  0  0  0  0  0  0  0  0
   25.0076   11.4914    8.0610 H   0  0  0  0  0  0  0  0  0  0  0  0
   26.5797   10.6501    7.7142 H   0  0  0  0  0  0  0  0  0  0  0  0
   27.4125   12.2757    5.6459 H   0  0  0  0  0  0  0  0  0  0  0  0
   24.9401   16.0083    2.7543 H   0  0  0  0  0  0  0  0  0  0  0  0
   23.5402   17.2462    4.5126 H   0  0  0  0  0  0  0  0  0  0  0  0
   23.5786   14.6926    8.8632 H   0  0  0  0  0  0  0  0  0  0  0  0
   22.5986   15.4487   11.0464 H   0  0  0  0  0  0  0  0  0  0  0  0
   27.1784   17.0049    9.6419 H   0  0  0  0  0  0  0  0  0  0  0  0
   27.0633   17.4974   12.6691 H   0  0  0  0  0  0  0  0  0  0  0  0
   26.5334   18.9298   11.8177 H   0  0  0  0  0  0  0  0  0  0  0  0
   24.3062   18.5562   14.9765 H   0  0  0  0  0  0  0  0  0  0  0  0
   26.0455   16.9253   15.4430 H   0  0  0  0  0  0  0  0  0  0  0  0
   27.3003   18.0493   14.8224 H   0  0  0  0  0  0  0  0  0  0  0  0
   25.4205   18.5305   17.1864 H   0  0  0  0  0  0  0  0  0  0  0  0
   27.1973   18.1928   17.2541 H   0  0  0  0  0  0  0  0  0  0  0  0
   26.5482   21.7278   15.2634 H   0  0  0  0  0  0  0  0  0  0  0  0
   27.6126   13.9401    8.3931 H   0  0  0  0  0  0  0  0  0  0  0  0
   23.9313   11.5591    3.2124 H   0  0  0  0  0  0  0  0  0  0  0  0
  1  2  1  0
  2  3  1  0
  3  4  2  0
  4  5  1  0
  5  6  1  0
  6  7  2  0
  6  8  2  0
  6  9  1  0
  9 10  1  0
 10 11  2  0
 11 12  1  0
 12 13  2  0
 13 14  1  0
 14 15  2  0
 15 16  1  0
 16 17  2  0
 17 18  1  0
 18 19  2  0
 19 20  1  0
 20 21  2  0
 20 22  1  0
 22 23  1  0
 23 24  1  0
 24 25  1  0
 25 26  1  0
 26 27  1  0
 27 28  2  0
 27 29  1  0
 29 30  1  0
 30 31  2  0
 23 32  1  0
 32 33  2  0
 15 34  1  0
 34 35  2  0
 35 36  1  0
  5 37  1  0
 37 38  2  0
 38  3  1  0
 36 10  1  0
 36 14  1  0
 21 16  1  0
 30 24  1  0
 32 19  1  0
  1 39  1  0
  1 40  1  0
  1 41  1  0
  2 42  1  0
  2 43  1  0
  4 44  1  0
 11 45  1  0
 12 46  1  0
 17 47  1  0
 18 48  1  0
 21 49  1  0
 22 50  1  0
 22 51  1  0
 24 52  1  1
 25 53  1  0
 25 54  1  0
 26 55  1  0
 26 56  1  0
 29 57  1  0
 34 58  1  0
 37 59  1  0
M  END
>  <meeko>  (148) 
{"is_sidechain": [true], "free_energy": -14.03, "intermolecular_energy": 0.0, "internal_energy": -14.03, "cluster_size": 20, "cluster_id": 1, "rank_in_cluster": 1}

>  <_RMSD_MCS_to_ref>  (148) 
0.5137639968355542

$$$$
ligand
     RDKit          3D

 59 64  0  0  0  0  0  0  0  0999 V2000
   24.8540    9.4020    7.6050 C   0  0  0  0  0  0  0  0  0  0  0  0
   25.5230   10.7550    7.4270 C   0  0  0  0  0  0  0  0  0  0  0  0
   24.7160   11.6750    6.5800 C   0  0  0  0  0  0  0  0  0  0  0  0
   24.8580   11.9720    5.2390 C   0  0  0  0  0  0  0  0  0  0  0  0
   23.8760   12.8880    4.9930 N   0  0  0  0  0  0  0  0  0  0  0  0
   23.4150   13.4530    3.4740 S   0  0  0  0  0  6  0  0  0  0  0  0
   23.8060   12.4010    2.5550 O   0  0  0  0  0  0  0  0  0  0  0  0
   22.0240   13.8380    3.6320 O   0  0  0  0  0  0  0  0  0  0  0  0
   24.3120   14.7700    3.1970 O   0  0  0  0  0  0  0  0  0  0  0  0
   25.5020   14.9790    3.7790 C   0  0  0  0  0  0  0  0  0  0  0  0
   26.5390   14.8450    2.9450 N   0  0  0  0  0  0  0  0  0  0  0  0
   27.6020   15.0910    3.7360 N   0  0  0  0  0  0  0  0  0  0  0  0
   27.2730   15.3680    5.0290 C   0  0  0  0  0  0  0  0  0  0  0  0
   28.1430   15.6420    6.0170 N   0  0  0  0  0  0  0  0  0  0  0  0
   27.5280   15.8800    7.2030 C   0  0  0  0  0  0  0  0  0  0  0  0
   26.1500   15.8650    7.4480 C   0  0  0  0  0  0  0  0  0  0  0  0
   25.6000   16.1370    8.7860 C   0  0  0  0  0  0  0  0  0  0  0  0
   24.4370   15.4620    9.2400 C   0  0  0  0  0  0  0  0  0  0  0  0
   23.8970   15.7010   10.5060 C   0  0  0  0  0  0  0  0  0  0  0  0
   24.5380   16.6270   11.3040 C   0  0  0  0  0  0  0  0  0  0  0  0
   25.6810   17.3040   10.8960 C   0  0  0  0  0  0  0  0  0  0  0  0
   26.2240   17.0690    9.6420 C   0  0  0  0  0  0  0  0  0  0  0  0
   26.1520   18.2100   11.9840 C   0  0  0  0  0  0  0  0  0  0  0  0
   25.1090   18.0690   12.9910 N   0  0  0  0  0  0  0  0  0  0  0  0
   25.2720   18.6210   14.3320 C   0  0  1  0  0  0  0  0  0  0  0  0
   26.3260   17.8990   15.1710 C   0  0  0  0  0  0  0  0  0  0  0  0
   26.3690   18.5130   16.5620 C   0  0  0  0  0  0  0  0  0  0  0  0
   26.6420   19.9980   16.4970 C   0  0  0  0  0  0  0  0  0  0  0  0
   27.1230   20.6160   17.4430 O   0  0  0  0  0  0  0  0  0  0  0  0
   26.2480   20.6490   15.3550 N   0  0  0  0  0  0  0  0  0  0  0  0
   25.5640   20.1290   14.2800 C   0  0  0  0  0  0  0  0  0  0  0  0
   25.1320   20.8740   13.4010 O   0  0  0  0  0  0  0  0  0  0  0  0
   24.2030   17.0720   12.6610 C   0  0  0  0  0  0  0  0  0  0  0  0
   23.3020   16.6120   13.3360 O   0  0  0  0  0  0  0  0  0  0  0  0
   25.3080   15.5730    6.3580 C   0  0  0  0  0  0  0  0  0  0  0  0
   25.8870   15.3100    5.1030 C   0  0  0  0  0  0  0  0  0  0  0  0
   23.1350   13.0590    6.1180 C   0  0  0  0  0  0  0  0  0  0  0  0
   23.6400   12.3580    7.1120 N   0  0  0  0  0  0  0  0  0  0  0  0
   24.7464    9.1845    8.6779 H   0  0  0  0  0  0  0  0  0  0  0  0
   23.8606    9.4192    7.1330 H   0  0  0  0  0  0  0  0  0  0  0  0
   25.4708    8.6230    7.1330 H   0  0  0  0  0  0  0  0  0  0  0  0
   25.6612   11.2146    8.4168 H   0  0  0  0  0  0  0  0  0  0  0  0
   26.4870   10.5910    6.9232 H   0  0  0  0  0  0  0  0  0  0  0  0
   25.5941   11.5638    4.5308 H   0  0  0  0  0  0  0  0  0  0  0  0
   28.5736   15.0714    3.3947 H   0  0  0  0  0  0  0  0  0  0  0  0
   28.1792   16.1081    8.0597 H   0  0  0  0  0  0  0  0  0  0  0  0
   23.9483   14.7319    8.5780 H   0  0  0  0  0  0  0  0  0  0  0  0
   22.9969   15.1724   10.8530 H   0  0  0  0  0  0  0  0  0  0  0  0
   27.1300   17.6025    9.3186 H   0  0  0  0  0  0  0  0  0  0  0  0
   27.1277   17.8863   12.3753 H   0  0  0  0  0  0  0  0  0  0  0  0
   26.3025   19.2483   11.6533 H   0  0  0  0  0  0  0  0  0  0  0  0
   24.3093   18.4573   14.8383 H   0  0  0  0  0  0  0  0  0  0  0  0
   26.0670   16.8327   15.2480 H   0  0  0  0  0  0  0  0  0  0  0  0
   27.3112   18.0015   14.6925 H   0  0  0  0  0  0  0  0  0  0  0  0
   25.4007   18.3478   17.0570 H   0  0  0  0  0  0  0  0  0  0  0  0
   27.1815   18.0345   17.1284 H   0  0  0  0  0  0  0  0  0  0  0  0
   26.4939   21.6474   15.2952 H   0  0  0  0  0  0  0  0  0  0  0  0
   24.2156   15.5509    6.4855 H   0  0  0  0  0  0  0  0  0  0  0  0
   22.2393   13.6935    6.1891 H   0  0  0  0  0  0  0  0  0  0  0  0
  1  2  1  0
  2  3  1  0
  3  4  2  0
  4  5  1  0
  5  6  1  0
  6  7  2  0
  6  8  2  0
  6  9  1  0
  9 10  1  0
 10 11  2  0
 11 12  1  0
 12 13  1  0
 13 14  2  0
 14 15  1  0
 15 16  2  0
 16 17  1  0
 17 18  2  0
 18 19  1  0
 19 20  2  0
 20 21  1  0
 21 22  2  0
 21 23  1  0
 23 24  1  0
 24 25  1  0
 25 26  1  0
 26 27  1  0
 27 28  1  0
 28 29  2  0
 28 30  1  0
 30 31  1  0
 31 32  2  0
 24 33  1  0
 33 34  2  0
 16 35  1  0
 35 36  2  0
  5 37  1  0
 37 38  2  0
 38  3  1  0
 36 10  1  0
 36 13  1  0
 22 17  1  0
 31 25  1  0
 33 20  1  0
  1 39  1  0
  1 40  1  0
  1 41  1  0
  2 42  1  0
  2 43  1  0
  4 44  1  0
 12 45  1  0
 15 46  1  0
 18 47  1  0
 19 48  1  0
 22 49  1  0
 23 50  1  0
 23 51  1  0
 25 52  1  1
 26 53  1  0
 26 54  1  0
 27 55  1  0
 27 56  1  0
 30 57  1  0
 35 58  1  0
 37 59  1  0
M  END
>  <meeko>  (149) 
{"is_sidechain": [true], "free_energy": -14.03, "intermolecular_energy": 0.0, "internal_energy": -14.03, "cluster_size": 9, "cluster_id": 2, "rank_in_cluster": 1}

>  <_RMSD_MCS_to_ref>  (149) 
0.5216486684861112

$$$$
ligand
     RDKit          3D

 63 68  0  0  0  0  0  0  0  0999 V2000
   24.8710    9.6160    7.7820 C   0  0  0  0  0  0  0  0  0  0  0  0
   25.4240   10.9650    7.3490 C   0  0  0  0  0  0  0  0  0  0  0  0
   26.5810   11.3920    8.1830 C   0  0  0  0  0  0  0  0  0  0  0  0
   27.6970   12.1190    7.8170 C   0  0  0  0  0  0  0  0  0  0  0  0
   28.4400   12.1890    8.9600 N   0  0  0  0  0  0  0  0  0  0  0  0
   29.8080   13.1470    9.1870 S   0  0  0  0  0  6  0  0  0  0  0  0
   30.5350   12.5020   10.2670 O   0  0  0  0  0  0  0  0  0  0  0  0
   30.3860   13.2800    7.8600 O   0  0  0  0  0  0  0  0  0  0  0  0
   29.2580   14.5970    9.6970 O   0  0  0  0  0  0  0  0  0  0  0  0
   28.0340   14.9940    9.2410 C   0  0  0  0  0  0  0  0  0  0  0  0
   26.9770   15.0870   10.1490 C   0  0  0  0  0  0  0  0  0  0  0  0
   25.6920   15.4920    9.7310 C   0  0  0  0  0  0  0  0  0  0  0  0
   24.6100   15.6470   10.7100 C   0  0  0  0  0  0  0  0  0  0  0  0
   23.3640   15.0120   10.5300 C   0  0  0  0  0  0  0  0  0  0  0  0
   22.3220   15.1440   11.4700 C   0  0  0  0  0  0  0  0  0  0  0  0
   22.4960   15.9190   12.6150 C   0  0  0  0  0  0  0  0  0  0  0  0
   23.7170   16.5440   12.7770 C   0  0  0  0  0  0  0  0  0  0  0  0
   24.7590   16.4220   11.8560 C   0  0  0  0  0  0  0  0  0  0  0  0
   25.9360   17.2180   12.3250 C   0  0  0  0  0  0  0  0  0  0  0  0
   25.4380   17.8490   13.5400 N   0  0  0  0  0  0  0  0  0  0  0  0
   26.3060   18.5090   14.5080 C   0  0  2  0  0  0  0  0  0  0  0  0
   26.0640   18.0200   15.9340 C   0  0  0  0  0  0  0  0  0  0  0  0
   27.0640   18.6820   16.8700 C   0  0  0  0  0  0  0  0  0  0  0  0
   26.9940   20.1880   16.7710 C   0  0  0  0  0  0  0  0  0  0  0  0
   27.1840   20.9180   17.7380 O   0  0  0  0  0  0  0  0  0  0  0  0
   26.7330   20.7100   15.5300 N   0  0  0  0  0  0  0  0  0  0  0  0
   26.1550   20.0400   14.4740 C   0  0  0  0  0  0  0  0  0  0  0  0
   25.5670   20.6630   13.5940 O   0  0  0  0  0  0  0  0  0  0  0  0
   24.1660   17.4100   13.8720 C   0  0  0  0  0  0  0  0  0  0  0  0
   23.5210   17.6690   14.8690 O   0  0  0  0  0  0  0  0  0  0  0  0
   25.4710   15.7540    8.3680 C   0  0  0  0  0  0  0  0  0  0  0  0
   26.5290   15.6380    7.4790 C   0  0  0  0  0  0  0  0  0  0  0  0
   27.8070   15.2810    7.9050 C   0  0  0  0  0  0  0  0  0  0  0  0
   28.7280   15.1520    6.8350 N   0  0  0  0  0  0  0  0  0  0  0  0
   28.0520   15.8630    5.7340 C   0  0  0  0  0  0  0  0  0  0  0  0
   26.5360   15.8130    6.0000 C   0  0  0  0  0  0  0  0  0  0  0  0
   27.7510   11.6060    9.9750 C   0  0  0  0  0  0  0  0  0  0  0  0
   26.6270   11.0840    9.5290 N   0  0  0  0  0  0  0  0  0  0  0  0
   24.8497    9.5640    8.8806 H   0  0  0  0  0  0  0  0  0  0  0  0
   23.8507    9.4948    7.3893 H   0  0  0  0  0  0  0  0  0  0  0  0
   25.5127    8.8135    7.3893 H   0  0  0  0  0  0  0  0  0  0  0  0
   25.7497   10.8945    6.3007 H   0  0  0  0  0  0  0  0  0  0  0  0
   24.6259   11.7121    7.4706 H   0  0  0  0  0  0  0  0  0  0  0  0
   27.9330   12.5442    6.8303 H   0  0  0  0  0  0  0  0  0  0  0  0
   27.1492   14.8405   11.2071 H   0  0  0  0  0  0  0  0  0  0  0  0
   23.2008   14.3974    9.6324 H   0  0  0  0  0  0  0  0  0  0  0  0
   21.3640   14.6313   11.2984 H   0  0  0  0  0  0  0  0  0  0  0  0
   21.6936   16.0285   13.3595 H   0  0  0  0  0  0  0  0  0  0  0  0
   26.7946   16.5652   12.5413 H   0  0  0  0  0  0  0  0  0  0  0  0
   26.2985   17.9393   11.5778 H   0  0  0  0  0  0  0  0  0  0  0  0
   27.3306   18.2420   14.2097 H   0  0  0  0  0  0  0  0  0  0  0  0
   25.0416   18.2824   16.2437 H   0  0  0  0  0  0  0  0  0  0  0  0
   26.1888   16.9279   15.9748 H   0  0  0  0  0  0  0  0  0  0  0  0
   26.8413   18.3800   17.9040 H   0  0  0  0  0  0  0  0  0  0  0  0
   28.0757   18.3614   16.5806 H   0  0  0  0  0  0  0  0  0  0  0  0
   26.9932   21.6941   15.3728 H   0  0  0  0  0  0  0  0  0  0  0  0
   24.4726   16.0470    8.0113 H   0  0  0  0  0  0  0  0  0  0  0  0
   29.6428   14.6788    6.8283 H   0  0  0  0  0  0  0  0  0  0  0  0
   28.3914   16.9088    5.7001 H   0  0  0  0  0  0  0  0  0  0  0  0
   28.2881   15.3896    4.7695 H   0  0  0  0  0  0  0  0  0  0  0  0
   26.0392   16.7470    5.6987 H   0  0  0  0  0  0  0  0  0  0  0  0
   25.9969   15.0331    5.4423 H   0  0  0  0  0  0  0  0  0  0  0  0
   28.0849   11.5743   11.0226 H   0  0  0  0  0  0  0  0  0  0  0  0
  1  2  1  0
  2  3  1  0
  3  4  2  0
  4  5  1  0
  5  6  1  0
  6  7  2  0
  6  8  2  0
  6  9  1  0
  9 10  1  0
 10 11  2  0
 11 12  1  0
 12 13  1  0
 13 14  2  0
 14 15  1  0
 15 16  2  0
 16 17  1  0
 17 18  2  0
 18 19  1  0
 19 20  1  0
 20 21  1  0
 21 22  1  0
 22 23  1  0
 23 24  1  0
 24 25  2  0
 24 26  1  0
 26 27  1  0
 27 28  2  0
 20 29  1  0
 29 30  2  0
 12 31  2  0
 31 32  1  0
 32 33  2  0
 33 34  1  0
 34 35  1  0
 35 36  1  0
  5 37  1  0
 37 38  2  0
 38  3  1  0
 33 10  1  0
 18 13  1  0
 27 21  1  0
 36 32  1  0
 29 17  1  0
  1 39  1  0
  1 40  1  0
  1 41  1  0
  2 42  1  0
  2 43  1  0
  4 44  1  0
 11 45  1  0
 14 46  1  0
 15 47  1  0
 16 48  1  0
 19 49  1  0
 19 50  1  0
 21 51  1  6
 22 52  1  0
 22 53  1  0
 23 54  1  0
 23 55  1  0
 26 56  1  0
 31 57  1  0
 34 58  1  0
 35 59  1  0
 35 60  1  0
 36 61  1  0
 36 62  1  0
 37 63  1  0
M  END
>  <meeko>  (150) 
{"is_sidechain": [true], "free_energy": -14.01, "intermolecular_energy": 0.0, "internal_energy": -14.01, "cluster_size": 10, "cluster_id": 1, "rank_in_cluster": 1}

>  <_RMSD_MCS_to_ref>  (150) 
1.490106670305482

$$$$
ligand
     RDKit          3D

 61 66  0  0  0  0  0  0  0  0999 V2000
   24.8710    9.6160    7.7820 C   0  0  0  0  0  0  0  0  0  0  0  0
   25.4240   10.9650    7.3490 C   0  0  0  0  0  0  0  0  0  0  0  0
   26.8270   11.1690    7.8000 C   0  0  0  0  0  0  0  0  0  0  0  0
   27.2940   11.8840    8.8860 C   0  0  0  0  0  0  0  0  0  0  0  0
   28.6500   11.7260    8.8280 N   0  0  0  0  0  0  0  0  0  0  0  0
   29.7650   12.4400    9.8680 S   0  0  0  0  0  6  0  0  0  0  0  0
   29.4580   11.9380   11.1960 O   0  0  0  0  0  0  0  0  0  0  0  0
   31.0460   12.1410    9.2510 O   0  0  0  0  0  0  0  0  0  0  0  0
   29.5590   14.0640    9.8100 O   0  0  0  0  0  0  0  0  0  0  0  0
   28.4870   14.5740    9.1110 C   0  0  0  0  0  0  0  0  0  0  0  0
   27.3410   14.8810    9.8470 C   0  0  0  0  0  0  0  0  0  0  0  0
   26.2150   15.3960    9.2010 C   0  0  0  0  0  0  0  0  0  0  0  0
   24.9860   15.6910    9.9430 C   0  0  0  0  0  0  0  0  0  0  0  0
   23.7220   15.3650    9.4130 C   0  0  0  0  0  0  0  0  0  0  0  0
   22.5290   15.6480   10.1080 C   0  0  0  0  0  0  0  0  0  0  0  0
   22.5680   16.2630   11.3570 C   0  0  0  0  0  0  0  0  0  0  0  0
   23.8120   16.5690   11.8730 C   0  0  0  0  0  0  0  0  0  0  0  0
   25.0030   16.2980   11.1960 C   0  0  0  0  0  0  0  0  0  0  0  0
   26.1580   16.7580   12.0260 C   0  0  0  0  0  0  0  0  0  0  0  0
   25.5230   17.2160   13.2530 N   0  0  0  0  0  0  0  0  0  0  0  0
   26.2690   17.9750   14.2500 C   0  0  2  0  0  0  0  0  0  0  0  0
   25.8450   17.6900   15.6900 C   0  0  0  0  0  0  0  0  0  0  0  0
   26.7260   18.4840   16.6410 C   0  0  0  0  0  0  0  0  0  0  0  0
   26.6680   19.9620   16.3360 C   0  0  0  0  0  0  0  0  0  0  0  0
   26.9200   20.8150   17.1830 O   0  0  0  0  0  0  0  0  0  0  0  0
   26.3960   20.3140   15.0380 N   0  0  0  0  0  0  0  0  0  0  0  0
   26.2050   19.4820   13.9580 C   0  0  0  0  0  0  0  0  0  0  0  0
   26.0960   19.9500   12.8250 O   0  0  0  0  0  0  0  0  0  0  0  0
   24.1410   17.2060   13.1510 C   0  0  0  0  0  0  0  0  0  0  0  0
   23.3210   17.6480   13.9330 O   0  0  0  0  0  0  0  0  0  0  0  0
   26.2900   15.6190    7.8170 C   0  0  0  0  0  0  0  0  0  0  0  0
   27.4370   15.3390    7.0810 C   0  0  0  0  0  0  0  0  0  0  0  0
   27.4480   15.5820    5.7560 N   0  0  0  0  0  0  0  0  0  0  0  0
   28.5900   15.2940    5.0950 C   0  0  0  0  0  0  0  0  0  0  0  0
   29.6960   14.7780    5.7340 C   0  0  0  0  0  0  0  0  0  0  0  0
   29.7040   14.5300    7.0620 N   0  0  0  0  0  0  0  0  0  0  0  0
   28.5680   14.8070    7.7410 C   0  0  0  0  0  0  0  0  0  0  0  0
   28.9700   10.9980    7.7280 C   0  0  0  0  0  0  0  0  0  0  0  0
   27.8800   10.6190    7.0930 N   0  0  0  0  0  0  0  0  0  0  0  0
   24.8497    9.5640    8.8806 H   0  0  0  0  0  0  0  0  0  0  0  0
   23.8507    9.4948    7.3893 H   0  0  0  0  0  0  0  0  0  0  0  0
   25.5127    8.8135    7.3893 H   0  0  0  0  0  0  0  0  0  0  0  0
   25.3928   11.0246    6.2511 H   0  0  0  0  0  0  0  0  0  0  0  0
   24.8040   11.7477    7.8106 H   0  0  0  0  0  0  0  0  0  0  0  0
   26.7093   12.4498    9.6263 H   0  0  0  0  0  0  0  0  0  0  0  0
   27.3250   14.7174   10.9346 H   0  0  0  0  0  0  0  0  0  0  0  0
   23.6646   14.8760    8.4294 H   0  0  0  0  0  0  0  0  0  0  0  0
   21.5601   15.3812    9.6607 H   0  0  0  0  0  0  0  0  0  0  0  0
   21.6458   16.4955   11.9098 H   0  0  0  0  0  0  0  0  0  0  0  0
   26.8539   15.9302   12.2270 H   0  0  0  0  0  0  0  0  0  0  0  0
   26.7598   17.5367   11.5346 H   0  0  0  0  0  0  0  0  0  0  0  0
   27.3105   17.6316   14.1639 H   0  0  0  0  0  0  0  0  0  0  0  0
   24.7947   17.9859   15.8289 H   0  0  0  0  0  0  0  0  0  0  0  0
   25.9525   16.6155   15.8994 H   0  0  0  0  0  0  0  0  0  0  0  0
   26.3819   18.3170   17.6724 H   0  0  0  0  0  0  0  0  0  0  0  0
   27.7649   18.1441   16.5181 H   0  0  0  0  0  0  0  0  0  0  0  0
   26.3262   21.3240   14.8486 H   0  0  0  0  0  0  0  0  0  0  0  0
   25.4119   16.0291    7.2967 H   0  0  0  0  0  0  0  0  0  0  0  0
   28.6386   15.4774    4.0115 H   0  0  0  0  0  0  0  0  0  0  0  0
   30.5996   14.5614    5.1453 H   0  0  0  0  0  0  0  0  0  0  0  0
   29.9958   10.7582    7.4113 H   0  0  0  0  0  0  0  0  0  0  0  0
  1  2  1  0
  2  3  1  0
  3  4  2  0
  4  5  1  0
  5  6  1  0
  6  7  2  0
  6  8  2  0
  6  9  1  0
  9 10  1  0
 10 11  2  0
 11 12  1  0
 12 13  1  0
 13 14  2  0
 14 15  1  0
 15 16  2  0
 16 17  1  0
 17 18  2  0
 18 19  1  0
 19 20  1  0
 20 21  1  0
 21 22  1  0
 22 23  1  0
 23 24  1  0
 24 25  2  0
 24 26  1  0
 26 27  1  0
 27 28  2  0
 20 29  1  0
 29 30  2  0
 12 31  2  0
 31 32  1  0
 32 33  2  0
 33 34  1  0
 34 35  2  0
 35 36  1  0
 36 37  2  0
  5 38  1  0
 38 39  2  0
 39  3  1  0
 37 10  1  0
 18 13  1  0
 27 21  1  0
 37 32  1  0
 29 17  1  0
  1 40  1  0
  1 41  1  0
  1 42  1  0
  2 43  1  0
  2 44  1  0
  4 45  1  0
 11 46  1  0
 14 47  1  0
 15 48  1  0
 16 49  1  0
 19 50  1  0
 19 51  1  0
 21 52  1  1
 22 53  1  0
 22 54  1  0
 23 55  1  0
 23 56  1  0
 26 57  1  0
 31 58  1  0
 34 59  1  0
 35 60  1  0
 38 61  1  0
M  END
>  <meeko>  (151) 
{"is_sidechain": [true], "free_energy": -14.01, "intermolecular_energy": 0.0, "internal_energy": -14.01, "cluster_size": 14, "cluster_id": 1, "rank_in_cluster": 1}

>  <_RMSD_MCS_to_ref>  (151) 
1.1135828313251876

$$$$
ligand
     RDKit          3D

 62 67  0  0  0  0  0  0  0  0999 V2000
   24.8540    9.4020    7.6050 C   0  0  0  0  0  0  0  0  0  0  0  0
   25.5230   10.7550    7.4270 C   0  0  0  0  0  0  0  0  0  0  0  0
   25.2020   11.3730    6.1120 C   0  0  0  0  0  0  0  0  0  0  0  0
   24.1700   12.2300    5.7830 C   0  0  0  0  0  0  0  0  0  0  0  0
   24.3650   12.4950    4.4570 N   0  0  0  0  0  0  0  0  0  0  0  0
   23.3390   13.3930    3.4770 S   0  0  0  0  0  6  0  0  0  0  0  0
   22.2950   13.8190    4.3940 O   0  0  0  0  0  0  0  0  0  0  0  0
   23.0270   12.5940    2.3100 O   0  0  0  0  0  0  0  0  0  0  0  0
   24.2350   14.8470    2.9700 C   0  0  0  0  0  0  0  0  0  0  0  0
   24.1970   15.1510    1.5960 C   0  0  0  0  0  0  0  0  0  0  0  0
   24.8060   16.3030    1.1070 C   0  0  0  0  0  0  0  0  0  0  0  0
   25.4580   17.1620    1.9810 C   0  0  0  0  0  0  0  0  0  0  0  0
   25.5100   16.8600    3.3440 C   0  0  0  0  0  0  0  0  0  0  0  0
   24.9090   15.6950    3.8650 C   0  0  0  0  0  0  0  0  0  0  0  0
   25.0560   15.4210    5.2890 C   0  0  0  0  0  0  0  0  0  0  0  0
   24.4620   15.9950    6.3100 N   0  0  0  0  0  0  0  0  0  0  0  0
   24.9870   15.3600    7.4160 C   0  0  0  0  0  0  0  0  0  0  0  0
   24.5900   15.6770    8.7770 C   0  0  0  0  0  0  0  0  0  0  0  0
   23.4590   15.0800    9.3830 C   0  0  0  0  0  0  0  0  0  0  0  0
   23.0900   15.3980   10.6960 C   0  0  0  0  0  0  0  0  0  0  0  0
   23.8690   16.3130   11.3740 C   0  0  0  0  0  0  0  0  0  0  0  0
   24.9900   16.9100   10.8060 C   0  0  0  0  0  0  0  0  0  0  0  0
   25.3630   16.6010    9.5090 C   0  0  0  0  0  0  0  0  0  0  0  0
   25.6360   17.8230   11.7920 C   0  0  0  0  0  0  0  0  0  0  0  0
   24.7110   17.7840   12.9170 N   0  0  0  0  0  0  0  0  0  0  0  0
   25.0540   18.3850   14.2010 C   0  0  1  0  0  0  0  0  0  0  0  0
   26.2850   17.7650   14.8610 C   0  0  0  0  0  0  0  0  0  0  0  0
   26.5150   18.4180   16.2130 C   0  0  0  0  0  0  0  0  0  0  0  0
   26.6620   19.9160   16.0800 C   0  0  0  0  0  0  0  0  0  0  0  0
   27.2510   20.5920   16.9190 O   0  0  0  0  0  0  0  0  0  0  0  0
   26.0300   20.5050   15.0150 N   0  0  0  0  0  0  0  0  0  0  0  0
   25.2180   19.9080   14.0770 C   0  0  0  0  0  0  0  0  0  0  0  0
   24.5920   20.5960   13.2720 O   0  0  0  0  0  0  0  0  0  0  0  0
   23.7200   16.8300   12.7380 C   0  0  0  0  0  0  0  0  0  0  0  0
   22.8780   16.4540   13.5310 O   0  0  0  0  0  0  0  0  0  0  0  0
   25.9000   14.4190    7.0030 C   0  0  0  0  0  0  0  0  0  0  0  0
   25.9510   14.4460    5.6400 O   0  0  0  0  0  0  0  0  0  0  0  0
   25.4110   11.7560    4.0070 C   0  0  0  0  0  0  0  0  0  0  0  0
   25.9690   11.0920    4.9990 N   0  0  0  0  0  0  0  0  0  0  0  0
   24.7464    9.1845    8.6779 H   0  0  0  0  0  0  0  0  0  0  0  0
   23.8606    9.4192    7.1330 H   0  0  0  0  0  0  0  0  0  0  0  0
   25.4708    8.6230    7.1330 H   0  0  0  0  0  0  0  0  0  0  0  0
   25.1804   11.4274    8.2273 H   0  0  0  0  0  0  0  0  0  0  0  0
   26.6114   10.6016    7.4709 H   0  0  0  0  0  0  0  0  0  0  0  0
   23.3734   12.6118    6.4385 H   0  0  0  0  0  0  0  0  0  0  0  0
   23.6809   14.4713    0.9020 H   0  0  0  0  0  0  0  0  0  0  0  0
   24.7708   16.5320    0.0317 H   0  0  0  0  0  0  0  0  0  0  0  0
   25.9328   18.0787    1.6011 H   0  0  0  0  0  0  0  0  0  0  0  0
   26.0318   17.5467    4.0268 H   0  0  0  0  0  0  0  0  0  0  0  0
   22.8599   14.3543    8.8134 H   0  0  0  0  0  0  0  0  0  0  0  0
   22.2114   14.9353   11.1694 H   0  0  0  0  0  0  0  0  0  0  0  0
   26.2494   17.0696    9.0564 H   0  0  0  0  0  0  0  0  0  0  0  0
   26.6304   17.4534   12.0829 H   0  0  0  0  0  0  0  0  0  0  0  0
   25.8067   18.8372   11.4017 H   0  0  0  0  0  0  0  0  0  0  0  0
   24.2044   18.1676   14.8649 H   0  0  0  0  0  0  0  0  0  0  0  0
   26.1238   16.6855   14.9975 H   0  0  0  0  0  0  0  0  0  0  0  0
   27.1651   17.9252   14.2209 H   0  0  0  0  0  0  0  0  0  0  0  0
   25.6586   18.1985   16.8675 H   0  0  0  0  0  0  0  0  0  0  0  0
   27.4445   18.0140   16.6406 H   0  0  0  0  0  0  0  0  0  0  0  0
   26.1812   21.5177   14.9032 H   0  0  0  0  0  0  0  0  0  0  0  0
   26.4875   13.7588    7.6579 H   0  0  0  0  0  0  0  0  0  0  0  0
   25.7461   11.7169    2.9600 H   0  0  0  0  0  0  0  0  0  0  0  0
  1  2  1  0
  2  3  1  0
  3  4  2  0
  4  5  1  0
  5  6  1  0
  6  7  2  0
  6  8  2  0
  6  9  1  0
  9 10  2  0
 10 11  1  0
 11 12  2  0
 12 13  1  0
 13 14  2  0
 14 15  1  0
 15 16  2  0
 16 17  1  0
 17 18  1  0
 18 19  2  0
 19 20  1  0
 20 21  2  0
 21 22  1  0
 22 23  2  0
 22 24  1  0
 24 25  1  0
 25 26  1  0
 26 27  1  0
 27 28  1  0
 28 29  1  0
 29 30  2  0
 29 31  1  0
 31 32  1  0
 32 33  2  0
 25 34  1  0
 34 35  2  0
 17 36  2  0
 36 37  1  0
  5 38  1  0
 38 39  2  0
 39  3  1  0
 14  9  1  0
 37 15  1  0
 23 18  1  0
 32 26  1  0
 34 21  1  0
  1 40  1  0
  1 41  1  0
  1 42  1  0
  2 43  1  0
  2 44  1  0
  4 45  1  0
 10 46  1  0
 11 47  1  0
 12 48  1  0
 13 49  1  0
 19 50  1  0
 20 51  1  0
 23 52  1  0
 24 53  1  0
 24 54  1  0
 26 55  1  1
 27 56  1  0
 27 57  1  0
 28 58  1  0
 28 59  1  0
 31 60  1  0
 36 61  1  0
 38 62  1  0
M  END
>  <meeko>  (152) 
{"is_sidechain": [true], "free_energy": -14.0, "intermolecular_energy": 0.0, "internal_energy": -14.0, "cluster_size": 13, "cluster_id": 1, "rank_in_cluster": 1}

>  <_RMSD_MCS_to_ref>  (152) 
0.5451814173078329

$$$$
ligand
     RDKit          3D

 64 69  0  0  0  0  0  0  0  0999 V2000
   24.8540    9.4020    7.6050 C   0  0  0  0  0  0  0  0  0  0  0  0
   25.5230   10.7550    7.4270 C   0  0  0  0  0  0  0  0  0  0  0  0
   25.1220   11.4200    6.1570 C   0  0  0  0  0  0  0  0  0  0  0  0
   23.9670   12.1230    5.8780 C   0  0  0  0  0  0  0  0  0  0  0  0
   24.1280   12.5390    4.5900 N   0  0  0  0  0  0  0  0  0  0  0  0
   22.9820   13.3410    3.6610 S   0  0  0  0  0  6  0  0  0  0  0  0
   21.8010   13.4710    4.4910 O   0  0  0  0  0  0  0  0  0  0  0  0
   22.9490   12.6480    2.3840 O   0  0  0  0  0  0  0  0  0  0  0  0
   23.6640   14.9430    3.4120 C   0  0  0  0  0  0  0  0  0  0  0  0
   23.2550   15.7250    2.3240 C   0  0  0  0  0  0  0  0  0  0  0  0
   23.8580   16.9730    2.0900 C   0  0  0  0  0  0  0  0  0  0  0  0
   24.8840   17.4360    2.9180 C   0  0  0  0  0  0  0  0  0  0  0  0
   25.2660   16.6320    3.9690 C   0  0  0  0  0  0  0  0  0  0  0  0
   24.6630   15.4270    4.2330 C   0  0  0  0  0  0  0  0  0  0  0  0
   25.5290   15.1490    5.4430 C   0  0  2  0  0  0  0  0  0  0  0  0
   24.7230   15.1080    6.7860 C   0  0  0  0  0  0  0  0  0  0  0  0
   23.6890   14.4530    6.9340 O   0  0  0  0  0  0  0  0  0  0  0  0
   25.3090   15.8690    7.7870 N   0  0  0  0  0  0  0  0  0  0  0  0
   24.8560   16.0670    9.1070 C   0  0  0  0  0  0  0  0  0  0  0  0
   23.6750   15.4980    9.6260 C   0  0  0  0  0  0  0  0  0  0  0  0
   23.2820   15.7120   10.9570 C   0  0  0  0  0  0  0  0  0  0  0  0
   24.0860   16.4980   11.7580 C   0  0  0  0  0  0  0  0  0  0  0  0
   25.2450   17.0630   11.2370 C   0  0  0  0  0  0  0  0  0  0  0  0
   25.6510   16.8760    9.9290 C   0  0  0  0  0  0  0  0  0  0  0  0
   25.8910   17.8400   12.3000 C   0  0  0  0  0  0  0  0  0  0  0  0
   26.8840   18.5230   12.1470 O   0  0  0  0  0  0  0  0  0  0  0  0
   25.1420   17.6460   13.4510 N   0  0  0  0  0  0  0  0  0  0  0  0
   25.3100   18.4140   14.6800 C   0  0  1  0  0  0  0  0  0  0  0  0
   26.3930   17.8630   15.6070 C   0  0  0  0  0  0  0  0  0  0  0  0
   26.4420   18.6970   16.8770 C   0  0  0  0  0  0  0  0  0  0  0  0
   26.6750   20.1570   16.5650 C   0  0  0  0  0  0  0  0  0  0  0  0
   27.1530   20.9320   17.3890 O   0  0  0  0  0  0  0  0  0  0  0  0
   26.2480   20.6020   15.3400 N   0  0  0  0  0  0  0  0  0  0  0  0
   25.5630   19.8990   14.3760 C   0  0  0  0  0  0  0  0  0  0  0  0
   25.1010   20.4790   13.3940 O   0  0  0  0  0  0  0  0  0  0  0  0
   23.9160   16.9050   13.1820 C   0  0  0  0  0  0  0  0  0  0  0  0
   26.2420   16.5120    5.1020 C   0  0  0  0  0  0  0  0  0  0  0  0
   25.3020   12.0550    4.1110 C   0  0  0  0  0  0  0  0  0  0  0  0
   25.9380   11.3770    5.0450 N   0  0  0  0  0  0  0  0  0  0  0  0
   24.7464    9.1845    8.6779 H   0  0  0  0  0  0  0  0  0  0  0  0
   23.8606    9.4192    7.1330 H   0  0  0  0  0  0  0  0  0  0  0  0
   25.4708    8.6230    7.1330 H   0  0  0  0  0  0  0  0  0  0  0  0
   25.2410   11.4029    8.2701 H   0  0  0  0  0  0  0  0  0  0  0  0
   26.6102   10.5913    7.3928 H   0  0  0  0  0  0  0  0  0  0  0  0
   23.1109   12.3059    6.5441 H   0  0  0  0  0  0  0  0  0  0  0  0
   22.4623   15.3625    1.6531 H   0  0  0  0  0  0  0  0  0  0  0  0
   23.5186   17.5917    1.2462 H   0  0  0  0  0  0  0  0  0  0  0  0
   25.3687   18.4068    2.7371 H   0  0  0  0  0  0  0  0  0  0  0  0
   26.1037   14.2221    5.5868 H   0  0  0  0  0  0  0  0  0  0  0  0
   26.1844   16.3493    7.5341 H   0  0  0  0  0  0  0  0  0  0  0  0
   23.0476   14.8726    8.9739 H   0  0  0  0  0  0  0  0  0  0  0  0
   22.3575   15.2649   11.3512 H   0  0  0  0  0  0  0  0  0  0  0  0
   26.5683   17.3471    9.5461 H   0  0  0  0  0  0  0  0  0  0  0  0
   24.3591   18.3144   15.2240 H   0  0  0  0  0  0  0  0  0  0  0  0
   26.1610   16.8185   15.8624 H   0  0  0  0  0  0  0  0  0  0  0  0
   27.3683   17.9074   15.1002 H   0  0  0  0  0  0  0  0  0  0  0  0
   25.4863   18.5927   17.4115 H   0  0  0  0  0  0  0  0  0  0  0  0
   27.2757   18.3367   17.4976 H   0  0  0  0  0  0  0  0  0  0  0  0
   26.4670   21.5828   15.1140 H   0  0  0  0  0  0  0  0  0  0  0  0
   23.8312   16.0264   13.8384 H   0  0  0  0  0  0  0  0  0  0  0  0
   23.0028   17.4909   13.3629 H   0  0  0  0  0  0  0  0  0  0  0  0
   26.1504   17.2884    5.8758 H   0  0  0  0  0  0  0  0  0  0  0  0
   27.3292   16.5846    4.9511 H   0  0  0  0  0  0  0  0  0  0  0  0
   25.6711   12.2074    3.0861 H   0  0  0  0  0  0  0  0  0  0  0  0
  1  2  1  0
  2  3  1  0
  3  4  2  0
  4  5  1  0
  5  6  1  0
  6  7  2  0
  6  8  2  0
  6  9  1  0
  9 10  2  0
 10 11  1  0
 11 12  2  0
 12 13  1  0
 13 14  2  0
 14 15  1  0
 15 16  1  0
 16 17  2  0
 16 18  1  0
 18 19  1  0
 19 20  2  0
 20 21  1  0
 21 22  2  0
 22 23  1  0
 23 24  2  0
 23 25  1  0
 25 26  2  0
 25 27  1  0
 27 28  1  0
 28 29  1  0
 29 30  1  0
 30 31  1  0
 31 32  2  0
 31 33  1  0
 33 34  1  0
 34 35  2  0
 27 36  1  0
 15 37  1  0
  5 38  1  0
 38 39  2  0
 39  3  1  0
 14  9  1  0
 24 19  1  0
 34 28  1  0
 37 13  1  0
 36 22  1  0
  1 40  1  0
  1 41  1  0
  1 42  1  0
  2 43  1  0
  2 44  1  0
  4 45  1  0
 10 46  1  0
 11 47  1  0
 12 48  1  0
 15 49  1  6
 18 50  1  0
 20 51  1  0
 21 52  1  0
 24 53  1  0
 28 54  1  1
 29 55  1  0
 29 56  1  0
 30 57  1  0
 30 58  1  0
 33 59  1  0
 36 60  1  0
 36 61  1  0
 37 62  1  0
 37 63  1  0
 38 64  1  0
M  END
>  <meeko>  (153) 
{"is_sidechain": [true], "free_energy": -14.0, "intermolecular_energy": 0.0, "internal_energy": -14.0, "cluster_size": 16, "cluster_id": 1, "rank_in_cluster": 1}

>  <_RMSD_MCS_to_ref>  (153) 
0.47840673072188145

$$$$
ligand
     RDKit          3D

 60 65  0  0  0  0  0  0  0  0999 V2000
   24.8710    9.6170    7.7820 C   0  0  0  0  0  0  0  0  0  0  0  0
   25.4240   10.9640    7.3490 C   0  0  0  0  0  0  0  0  0  0  0  0
   24.9200   11.3760    6.0110 C   0  0  0  0  0  0  0  0  0  0  0  0
   24.2140   12.5100    5.6610 C   0  0  0  0  0  0  0  0  0  0  0  0
   23.9750   12.3560    4.3240 N   0  0  0  0  0  0  0  0  0  0  0  0
   23.3500   13.5260    3.2870 S   0  0  0  0  0  6  0  0  0  0  0  0
   21.9770   13.6790    3.7340 O   0  0  0  0  0  0  0  0  0  0  0  0
   23.6320   13.0590    1.9400 O   0  0  0  0  0  0  0  0  0  0  0  0
   24.1130   14.9480    3.5650 O   0  0  0  0  0  0  0  0  0  0  0  0
   25.4410   14.9990    3.9260 C   0  0  0  0  0  0  0  0  0  0  0  0
   26.4340   14.8440    3.0290 C   0  0  0  0  0  0  0  0  0  0  0  0
   27.8340   14.9060    3.4300 C   0  0  0  0  0  0  0  0  0  0  0  0
   28.1320   15.1420    4.7190 C   0  0  0  0  0  0  0  0  0  0  0  0
   27.0960   15.3310    5.6320 N   0  0  0  0  0  0  0  0  0  0  0  0
   27.1520   15.5950    6.9770 C   0  0  0  0  0  0  0  0  0  0  0  0
   25.8400   15.7310    7.3830 C   0  0  0  0  0  0  0  0  0  0  0  0
   25.3830   16.0430    8.7270 C   0  0  0  0  0  0  0  0  0  0  0  0
   24.1230   15.5580    9.1520 C   0  0  0  0  0  0  0  0  0  0  0  0
   23.6380   15.8200   10.4360 C   0  0  0  0  0  0  0  0  0  0  0  0
   24.4410   16.5660   11.2740 C   0  0  0  0  0  0  0  0  0  0  0  0
   25.6860   17.0550   10.8830 C   0  0  0  0  0  0  0  0  0  0  0  0
   26.1710   16.8040    9.6090 C   0  0  0  0  0  0  0  0  0  0  0  0
   26.3030   17.8290   12.0010 C   0  0  0  0  0  0  0  0  0  0  0  0
   25.3380   17.6560   13.0790 N   0  0  0  0  0  0  0  0  0  0  0  0
   25.3680   18.4230   14.3180 C   0  0  1  0  0  0  0  0  0  0  0  0
   26.2950   17.8070   15.3630 C   0  0  0  0  0  0  0  0  0  0  0  0
   26.2040   18.6080   16.6530 C   0  0  0  0  0  0  0  0  0  0  0  0
   26.5110   20.0680   16.4120 C   0  0  0  0  0  0  0  0  0  0  0  0
   27.1210   20.7540   17.2250 O   0  0  0  0  0  0  0  0  0  0  0  0
   26.0570   20.6020   15.2330 N   0  0  0  0  0  0  0  0  0  0  0  0
   25.7770   19.8880   14.0900 C   0  0  0  0  0  0  0  0  0  0  0  0
   25.8760   20.4210   12.9870 O   0  0  0  0  0  0  0  0  0  0  0  0
   24.1980   16.9870   12.6580 C   0  0  0  0  0  0  0  0  0  0  0  0
   23.1810   16.7720   13.2890 O   0  0  0  0  0  0  0  0  0  0  0  0
   24.9820   15.5500    6.3220 N   0  0  0  0  0  0  0  0  0  0  0  0
   25.7510   15.2870    5.2870 C   0  0  0  0  0  0  0  0  0  0  0  0
   24.5950   11.2290    3.8900 C   0  0  0  0  0  0  0  0  0  0  0  0
   25.1490   10.5860    4.8980 N   0  0  0  0  0  0  0  0  0  0  0  0
   24.8498    9.5653    8.8806 H   0  0  0  0  0  0  0  0  0  0  0  0
   23.8505    9.4962    7.3895 H   0  0  0  0  0  0  0  0  0  0  0  0
   25.5122    8.8140    7.3895 H   0  0  0  0  0  0  0  0  0  0  0  0
   25.1272   11.7227    8.0881 H   0  0  0  0  0  0  0  0  0  0  0  0
   26.5184   10.8741    7.2840 H   0  0  0  0  0  0  0  0  0  0  0  0
   23.9129   13.3458    6.3096 H   0  0  0  0  0  0  0  0  0  0  0  0
   26.1833   14.6671    1.9727 H   0  0  0  0  0  0  0  0  0  0  0  0
   28.6342   14.7619    2.6891 H   0  0  0  0  0  0  0  0  0  0  0  0
   29.1803   15.1855    5.0493 H   0  0  0  0  0  0  0  0  0  0  0  0
   28.0537   15.6804    7.6012 H   0  0  0  0  0  0  0  0  0  0  0  0
   23.5129   14.9624    8.4570 H   0  0  0  0  0  0  0  0  0  0  0  0
   22.6568   15.4470   10.7650 H   0  0  0  0  0  0  0  0  0  0  0  0
   27.1512   17.1917    9.2945 H   0  0  0  0  0  0  0  0  0  0  0  0
   27.2842   17.4149   12.2763 H   0  0  0  0  0  0  0  0  0  0  0  0
   26.4938   18.8829   11.7500 H   0  0  0  0  0  0  0  0  0  0  0  0
   24.3361   18.3954   14.6979 H   0  0  0  0  0  0  0  0  0  0  0  0
   25.9925   16.7669   15.5546 H   0  0  0  0  0  0  0  0  0  0  0  0
   27.3303   17.8240   14.9918 H   0  0  0  0  0  0  0  0  0  0  0  0
   25.1862   18.5178   17.0604 H   0  0  0  0  0  0  0  0  0  0  0  0
   26.9428   18.2092   17.3637 H   0  0  0  0  0  0  0  0  0  0  0  0
   25.9138   21.6215   15.2002 H   0  0  0  0  0  0  0  0  0  0  0  0
   24.6301   10.8982    2.8415 H   0  0  0  0  0  0  0  0  0  0  0  0
  1  2  1  0
  2  3  1  0
  3  4  2  0
  4  5  1  0
  5  6  1  0
  6  7  2  0
  6  8  2  0
  6  9  1  0
  9 10  1  0
 10 11  2  0
 11 12  1  0
 12 13  2  0
 13 14  1  0
 14 15  1  0
 15 16  2  0
 16 17  1  0
 17 18  2  0
 18 19  1  0
 19 20  2  0
 20 21  1  0
 21 22  2  0
 21 23  1  0
 23 24  1  0
 24 25  1  0
 25 26  1  0
 26 27  1  0
 27 28  1  0
 28 29  2  0
 28 30  1  0
 30 31  1  0
 31 32  2  0
 24 33  1  0
 33 34  2  0
 16 35  1  0
 35 36  2  0
  5 37  1  0
 37 38  2  0
 38  3  1  0
 36 10  1  0
 36 14  1  0
 22 17  1  0
 31 25  1  0
 33 20  1  0
  1 39  1  0
  1 40  1  0
  1 41  1  0
  2 42  1  0
  2 43  1  0
  4 44  1  0
 11 45  1  0
 12 46  1  0
 13 47  1  0
 15 48  1  0
 18 49  1  0
 19 50  1  0
 22 51  1  0
 23 52  1  0
 23 53  1  0
 25 54  1  1
 26 55  1  0
 26 56  1  0
 27 57  1  0
 27 58  1  0
 30 59  1  0
 37 60  1  0
M  END
>  <meeko>  (154) 
{"is_sidechain": [true], "free_energy": -14.0, "intermolecular_energy": 0.0, "internal_energy": -14.0, "cluster_size": 13, "cluster_id": 1, "rank_in_cluster": 1}

>  <_RMSD_MCS_to_ref>  (154) 
0.6384946111135577

$$$$
ligand
     RDKit          3D

 61 65  0  0  0  0  0  0  0  0999 V2000
   24.8540    9.4020    7.6050 C   0  0  0  0  0  0  0  0  0  0  0  0
   25.5230   10.7550    7.4270 C   0  0  0  0  0  0  0  0  0  0  0  0
   27.0070   10.6480    7.3890 C   0  0  0  0  0  0  0  0  0  0  0  0
   27.9350   11.5780    6.9620 C   0  0  0  0  0  0  0  0  0  0  0  0
   29.1360   10.9500    7.1200 N   0  0  0  0  0  0  0  0  0  0  0  0
   30.6500   11.6610    6.9590 S   0  0  0  0  0  6  0  0  0  0  0  0
   31.5800   10.7640    7.6160 O   0  0  0  0  0  0  0  0  0  0  0  0
   30.7730   12.0180    5.5580 O   0  0  0  0  0  0  0  0  0  0  0  0
   30.5130   13.1470    7.9150 C   0  0  0  0  0  0  0  0  0  0  0  0
   31.5550   13.5050    8.7900 C   0  0  0  0  0  0  0  0  0  0  0  0
   31.4550   14.6710    9.5540 C   0  0  0  0  0  0  0  0  0  0  0  0
   30.3320   15.4660    9.4070 C   0  0  0  0  0  0  0  0  0  0  0  0
   29.3050   15.1030    8.5370 C   0  0  0  0  0  0  0  0  0  0  0  0
   29.3740   13.9490    7.7750 C   0  0  0  0  0  0  0  0  0  0  0  0
   28.2050   16.1070    8.6070 C   0  0  0  0  0  0  0  0  0  0  0  0
   28.8780   17.2310    9.4190 C   0  0  1  0  0  0  0  0  0  0  0  0
   27.8670   17.8390   10.4040 C   0  0  0  0  0  0  0  0  0  0  0  0
   27.7760   19.0540   10.5490 O   0  0  0  0  0  0  0  0  0  0  0  0
   27.0900   16.8680   11.0100 N   0  0  0  0  0  0  0  0  0  0  0  0
   26.0570   17.0250   11.9470 C   0  0  0  0  0  0  0  0  0  0  0  0
   24.8670   16.3300   11.7090 C   0  0  0  0  0  0  0  0  0  0  0  0
   23.7940   16.4380   12.5920 C   0  0  0  0  0  0  0  0  0  0  0  0
   23.8980   17.2420   13.7260 C   0  0  0  0  0  0  0  0  0  0  0  0
   25.0850   17.9390   13.9930 C   0  0  0  0  0  0  0  0  0  0  0  0
   25.2250   18.8470   15.2050 C   0  0  1  0  0  0  0  0  0  0  0  0
   26.1960   18.2240   16.2140 C   0  0  0  0  0  0  0  0  0  0  0  0
   26.2820   19.0990   17.4540 C   0  0  0  0  0  0  0  0  0  0  0  0
   26.6990   20.5040   17.0980 C   0  0  0  0  0  0  0  0  0  0  0  0
   27.2750   21.2400   17.8950 O   0  0  0  0  0  0  0  0  0  0  0  0
   26.3460   20.9490   15.8500 N   0  0  0  0  0  0  0  0  0  0  0  0
   25.6530   20.2750   14.8680 C   0  0  0  0  0  0  0  0  0  0  0  0
   25.3730   20.8530   13.8200 O   0  0  0  0  0  0  0  0  0  0  0  0
   26.1570   17.8270   13.0870 C   0  0  0  0  0  0  0  0  0  0  0  0
   30.0530   16.6360   10.1500 N   0  0  0  0  0  0  0  0  0  0  0  0
   28.9290    9.7230    7.6640 C   0  0  0  0  0  0  0  0  0  0  0  0
   27.6410    9.5030    7.8320 N   0  0  0  0  0  0  0  0  0  0  0  0
   24.7464    9.1845    8.6779 H   0  0  0  0  0  0  0  0  0  0  0  0
   23.8606    9.4192    7.1330 H   0  0  0  0  0  0  0  0  0  0  0  0
   25.4708    8.6230    7.1330 H   0  0  0  0  0  0  0  0  0  0  0  0
   25.1757   11.2004    6.4831 H   0  0  0  0  0  0  0  0  0  0  0  0
   25.2517   11.3818    8.2893 H   0  0  0  0  0  0  0  0  0  0  0  0
   27.7483   12.5931    6.5815 H   0  0  0  0  0  0  0  0  0  0  0  0
   32.4477   12.8676    8.8727 H   0  0  0  0  0  0  0  0  0  0  0  0
   32.2527   14.9510   10.2578 H   0  0  0  0  0  0  0  0  0  0  0  0
   28.5634   13.6724    7.0848 H   0  0  0  0  0  0  0  0  0  0  0  0
   27.9111   16.4537    7.6053 H   0  0  0  0  0  0  0  0  0  0  0  0
   27.2729   15.7258    9.0496 H   0  0  0  0  0  0  0  0  0  0  0  0
   29.2258   18.0369    8.7560 H   0  0  0  0  0  0  0  0  0  0  0  0
   27.2980   15.8971   10.7361 H   0  0  0  0  0  0  0  0  0  0  0  0
   24.7770   15.6925   10.8171 H   0  0  0  0  0  0  0  0  0  0  0  0
   22.8627   15.8873   12.3935 H   0  0  0  0  0  0  0  0  0  0  0  0
   23.0448   17.3301   14.4147 H   0  0  0  0  0  0  0  0  0  0  0  0
   24.2201   18.9316   15.6443 H   0  0  0  0  0  0  0  0  0  0  0  0
   25.8364   17.2238   16.4972 H   0  0  0  0  0  0  0  0  0  0  0  0
   27.1931   18.1437   15.7564 H   0  0  0  0  0  0  0  0  0  0  0  0
   25.2965   19.1292   17.9417 H   0  0  0  0  0  0  0  0  0  0  0  0
   27.0354   18.6717   18.1321 H   0  0  0  0  0  0  0  0  0  0  0  0
   26.6358   21.9095   15.6168 H   0  0  0  0  0  0  0  0  0  0  0  0
   27.0883   18.3798   13.2797 H   0  0  0  0  0  0  0  0  0  0  0  0
   30.5353   16.9940   10.9867 H   0  0  0  0  0  0  0  0  0  0  0  0
   29.7258    9.0119    7.9276 H   0  0  0  0  0  0  0  0  0  0  0  0
  1  2  1  0
  2  3  1  0
  3  4  2  0
  4  5  1  0
  5  6  1  0
  6  7  2  0
  6  8  2  0
  6  9  1  0
  9 10  2  0
 10 11  1  0
 11 12  2  0
 12 13  1  0
 13 14  2  0
 13 15  1  0
 15 16  1  0
 16 17  1  0
 17 18  2  0
 17 19  1  0
 19 20  1  0
 20 21  2  0
 21 22  1  0
 22 23  2  0
 23 24  1  0
 24 25  1  0
 25 26  1  0
 26 27  1  0
 27 28  1  0
 28 29  2  0
 28 30  1  0
 30 31  1  0
 31 32  2  0
 24 33  2  0
 16 34  1  0
  5 35  1  0
 35 36  2  0
 36  3  1  0
 14  9  1  0
 33 20  1  0
 34 12  1  0
 31 25  1  0
  1 37  1  0
  1 38  1  0
  1 39  1  0
  2 40  1  0
  2 41  1  0
  4 42  1  0
 10 43  1  0
 11 44  1  0
 14 45  1  0
 15 46  1  0
 15 47  1  0
 16 48  1  6
 19 49  1  0
 21 50  1  0
 22 51  1  0
 23 52  1  0
 25 53  1  1
 26 54  1  0
 26 55  1  0
 27 56  1  0
 27 57  1  0
 30 58  1  0
 33 59  1  0
 34 60  1  0
 35 61  1  0
M  END
>  <meeko>  (155) 
{"is_sidechain": [true], "free_energy": -13.99, "intermolecular_energy": 0.0, "internal_energy": -13.99, "cluster_size": 18, "cluster_id": 1, "rank_in_cluster": 1}

>  <_RMSD_MCS_to_ref>  (155) 
0.875477726729812

$$$$
ligand
     RDKit          3D

 60 65  0  0  0  0  0  0  0  0999 V2000
   24.8540    9.4020    7.6050 C   0  0  0  0  0  0  0  0  0  0  0  0
   25.5230   10.7550    7.4270 C   0  0  0  0  0  0  0  0  0  0  0  0
   25.1700   11.4260    6.1430 C   0  0  0  0  0  0  0  0  0  0  0  0
   24.5610   12.6510    5.9410 C   0  0  0  0  0  0  0  0  0  0  0  0
   24.4810   12.7680    4.5830 N   0  0  0  0  0  0  0  0  0  0  0  0
   23.7160   14.0040    3.7300 S   0  0  0  0  0  6  0  0  0  0  0  0
   24.2380   13.8570    2.3820 O   0  0  0  0  0  0  0  0  0  0  0  0
   22.2950   13.8430    3.9860 O   0  0  0  0  0  0  0  0  0  0  0  0
   24.2000   15.4570    4.2810 O   0  0  0  0  0  0  0  0  0  0  0  0
   25.1620   15.5020    5.2550 C   0  0  0  0  0  0  0  0  0  0  0  0
   26.4560   15.1730    4.8940 C   0  0  0  0  0  0  0  0  0  0  0  0
   27.4020   15.1450    5.9270 C   0  0  0  0  0  0  0  0  0  0  0  0
   28.7940   14.8590    5.9800 C   0  0  0  0  0  0  0  0  0  0  0  0
   29.1920   14.9610    7.2930 C   0  0  0  0  0  0  0  0  0  0  0  0
   28.0940   15.2950    8.0400 N   0  0  0  0  0  0  0  0  0  0  0  0
   26.9860   15.4360    7.2280 C   0  0  0  0  0  0  0  0  0  0  0  0
   25.6600   15.7610    7.5290 C   0  0  0  0  0  0  0  0  0  0  0  0
   25.1520   16.0540    8.8700 C   0  0  0  0  0  0  0  0  0  0  0  0
   23.9980   15.4120    9.3870 C   0  0  0  0  0  0  0  0  0  0  0  0
   23.5200   15.6850   10.6740 C   0  0  0  0  0  0  0  0  0  0  0  0
   24.2220   16.6010   11.4310 C   0  0  0  0  0  0  0  0  0  0  0  0
   25.3680   17.2350   10.9660 C   0  0  0  0  0  0  0  0  0  0  0  0
   25.8420   16.9710    9.6920 C   0  0  0  0  0  0  0  0  0  0  0  0
   25.9350   18.1170   12.0260 C   0  0  0  0  0  0  0  0  0  0  0  0
   24.9360   18.0200   13.0830 N   0  0  0  0  0  0  0  0  0  0  0  0
   25.1830   18.5760   14.4090 C   0  0  1  0  0  0  0  0  0  0  0  0
   26.3080   17.8730   15.1670 C   0  0  0  0  0  0  0  0  0  0  0  0
   26.4400   18.4820   16.5530 C   0  0  0  0  0  0  0  0  0  0  0  0
   26.6780   19.9720   16.4770 C   0  0  0  0  0  0  0  0  0  0  0  0
   27.2260   20.5940   17.3830 O   0  0  0  0  0  0  0  0  0  0  0  0
   26.1800   20.6200   15.3750 N   0  0  0  0  0  0  0  0  0  0  0  0
   25.4420   20.0890   14.3420 C   0  0  0  0  0  0  0  0  0  0  0  0
   24.9500   20.8280   13.4900 O   0  0  0  0  0  0  0  0  0  0  0  0
   23.9730   17.0610   12.8010 C   0  0  0  0  0  0  0  0  0  0  0  0
   23.0860   16.6430   13.5200 O   0  0  0  0  0  0  0  0  0  0  0  0
   24.7580   15.7650    6.5090 N   0  0  0  0  0  0  0  0  0  0  0  0
   24.9360   11.6220    4.0110 C   0  0  0  0  0  0  0  0  0  0  0  0
   25.4040   10.8000    4.9290 N   0  0  0  0  0  0  0  0  0  0  0  0
   24.7464    9.1845    8.6779 H   0  0  0  0  0  0  0  0  0  0  0  0
   23.8606    9.4192    7.1330 H   0  0  0  0  0  0  0  0  0  0  0  0
   25.4708    8.6230    7.1330 H   0  0  0  0  0  0  0  0  0  0  0  0
   25.2159   11.4077    8.2574 H   0  0  0  0  0  0  0  0  0  0  0  0
   26.6091   10.5810    7.4145 H   0  0  0  0  0  0  0  0  0  0  0  0
   24.2188   13.3682    6.7016 H   0  0  0  0  0  0  0  0  0  0  0  0
   26.7276   14.9457    3.8526 H   0  0  0  0  0  0  0  0  0  0  0  0
   29.4368   14.6024    5.1251 H   0  0  0  0  0  0  0  0  0  0  0  0
   30.2113   14.8024    7.6749 H   0  0  0  0  0  0  0  0  0  0  0  0
   28.0945   15.4229    9.0620 H   0  0  0  0  0  0  0  0  0  0  0  0
   23.4652   14.6812    8.7609 H   0  0  0  0  0  0  0  0  0  0  0  0
   22.6201   15.1889   11.0667 H   0  0  0  0  0  0  0  0  0  0  0  0
   26.7492   17.4720    9.3233 H   0  0  0  0  0  0  0  0  0  0  0  0
   26.9134   17.7489   12.3684 H   0  0  0  0  0  0  0  0  0  0  0  0
   26.1179   19.1477   11.6881 H   0  0  0  0  0  0  0  0  0  0  0  0
   24.2609   18.3961   14.9811 H   0  0  0  0  0  0  0  0  0  0  0  0
   26.0760   16.8016   15.2575 H   0  0  0  0  0  0  0  0  0  0  0  0
   27.2538   17.9974   14.6193 H   0  0  0  0  0  0  0  0  0  0  0  0
   25.5138   18.2953   17.1162 H   0  0  0  0  0  0  0  0  0  0  0  0
   27.3012   18.0178   17.0558 H   0  0  0  0  0  0  0  0  0  0  0  0
   26.3835   21.6278   15.3133 H   0  0  0  0  0  0  0  0  0  0  0  0
   24.9164   11.4100    2.9318 H   0  0  0  0  0  0  0  0  0  0  0  0
  1  2  1  0
  2  3  1  0
  3  4  2  0
  4  5  1  0
  5  6  1  0
  6  7  2  0
  6  8  2  0
  6  9  1  0
  9 10  1  0
 10 11  2  0
 11 12  1  0
 12 13  1  0
 13 14  2  0
 14 15  1  0
 15 16  1  0
 16 17  1  0
 17 18  1  0
 18 19  2  0
 19 20  1  0
 20 21  2  0
 21 22  1  0
 22 23  2  0
 22 24  1  0
 24 25  1  0
 25 26  1  0
 26 27  1  0
 27 28  1  0
 28 29  1  0
 29 30  2  0
 29 31  1  0
 31 32  1  0
 32 33  2  0
 25 34  1  0
 34 35  2  0
 17 36  2  0
  5 37  1  0
 37 38  2  0
 38  3  1  0
 36 10  1  0
 16 12  2  0
 23 18  1  0
 32 26  1  0
 34 21  1  0
  1 39  1  0
  1 40  1  0
  1 41  1  0
  2 42  1  0
  2 43  1  0
  4 44  1  0
 11 45  1  0
 13 46  1  0
 14 47  1  0
 15 48  1  0
 19 49  1  0
 20 50  1  0
 23 51  1  0
 24 52  1  0
 24 53  1  0
 26 54  1  1
 27 55  1  0
 27 56  1  0
 28 57  1  0
 28 58  1  0
 31 59  1  0
 37 60  1  0
M  END
>  <meeko>  (156) 
{"is_sidechain": [true], "free_energy": -13.99, "intermolecular_energy": 0.0, "internal_energy": -13.99, "cluster_size": 17, "cluster_id": 1, "rank_in_cluster": 1}

>  <_RMSD_MCS_to_ref>  (156) 
0.4301187174619473

$$$$
ligand
     RDKit          3D

 58 62  0  0  0  0  0  0  0  0999 V2000
   24.8710    9.6170    7.7820 C   0  0  0  0  0  0  0  0  0  0  0  0
   25.4240   10.9640    7.3490 C   0  0  0  0  0  0  0  0  0  0  0  0
   24.7670   11.4750    6.1130 C   0  0  0  0  0  0  0  0  0  0  0  0
   24.4410   12.7730    5.7730 C   0  0  0  0  0  0  0  0  0  0  0  0
   23.8320   12.6580    4.5550 N   0  0  0  0  0  0  0  0  0  0  0  0
   23.4000   13.9370    3.5440 S   0  0  0  0  0  6  0  0  0  0  0  0
   23.9220   13.5700    2.2410 O   0  0  0  0  0  0  0  0  0  0  0  0
   21.9750   14.1090    3.7640 O   0  0  0  0  0  0  0  0  0  0  0  0
   24.1690   15.2570    4.1320 O   0  0  0  0  0  0  0  0  0  0  0  0
   25.4560   15.5050    3.7320 C   0  0  0  0  0  0  0  0  0  0  0  0
   25.7760   15.4640    2.3740 C   0  0  0  0  0  0  0  0  0  0  0  0
   27.0800   15.7470    1.9690 C   0  0  0  0  0  0  0  0  0  0  0  0
   28.0520   16.0820    2.9150 C   0  0  0  0  0  0  0  0  0  0  0  0
   27.7230   16.1400    4.2710 C   0  0  0  0  0  0  0  0  0  0  0  0
   26.4200   15.8570    4.6850 C   0  0  0  0  0  0  0  0  0  0  0  0
   26.0790   15.9240    6.0730 C   0  0  0  0  0  0  0  0  0  0  0  0
   25.7120   15.9500    7.2160 C   0  0  0  0  0  0  0  0  0  0  0  0
   25.2710   16.0920    8.5690 C   0  0  0  0  0  0  0  0  0  0  0  0
   24.0570   15.4980    8.9800 C   0  0  0  0  0  0  0  0  0  0  0  0
   23.5700   15.6850   10.2800 C   0  0  0  0  0  0  0  0  0  0  0  0
   24.3260   16.4680   11.1280 C   0  0  0  0  0  0  0  0  0  0  0  0
   25.5180   17.0420   10.7260 C   0  0  0  0  0  0  0  0  0  0  0  0
   26.0230   16.8740    9.4530 C   0  0  0  0  0  0  0  0  0  0  0  0
   26.0350   17.8210   11.8480 C   0  0  0  0  0  0  0  0  0  0  0  0
   27.0440   18.4980   11.8010 O   0  0  0  0  0  0  0  0  0  0  0  0
   25.1600   17.6440   12.8850 N   0  0  0  0  0  0  0  0  0  0  0  0
   25.2290   18.3410   14.1600 C   0  0  1  0  0  0  0  0  0  0  0  0
   26.2880   17.7930   15.1110 C   0  0  0  0  0  0  0  0  0  0  0  0
   26.2380   18.5690   16.4180 C   0  0  0  0  0  0  0  0  0  0  0  0
   26.4150   20.0520   16.1830 C   0  0  0  0  0  0  0  0  0  0  0  0
   26.9120   20.7950   17.0240 O   0  0  0  0  0  0  0  0  0  0  0  0
   25.9390   20.5470   14.9940 N   0  0  0  0  0  0  0  0  0  0  0  0
   25.4620   19.8350   13.9150 C   0  0  0  0  0  0  0  0  0  0  0  0
   25.2040   20.4090   12.8590 O   0  0  0  0  0  0  0  0  0  0  0  0
   24.0890   16.8760   12.5120 C   0  0  0  0  0  0  0  0  0  0  0  0
   23.1170   16.5560   13.1670 O   0  0  0  0  0  0  0  0  0  0  0  0
   23.8670   11.3580    4.1630 C   0  0  0  0  0  0  0  0  0  0  0  0
   24.4120   10.6070    5.0970 N   0  0  0  0  0  0  0  0  0  0  0  0
   24.8498    9.5653    8.8806 H   0  0  0  0  0  0  0  0  0  0  0  0
   23.8505    9.4962    7.3895 H   0  0  0  0  0  0  0  0  0  0  0  0
   25.5122    8.8140    7.3895 H   0  0  0  0  0  0  0  0  0  0  0  0
   25.2638   11.6893    8.1603 H   0  0  0  0  0  0  0  0  0  0  0  0
   26.4944   10.8338    7.1315 H   0  0  0  0  0  0  0  0  0  0  0  0
   24.6286   13.6901    6.3506 H   0  0  0  0  0  0  0  0  0  0  0  0
   25.0064   15.2107    1.6299 H   0  0  0  0  0  0  0  0  0  0  0  0
   27.3440   15.7064    0.9019 H   0  0  0  0  0  0  0  0  0  0  0  0
   29.0800   16.3008    2.5906 H   0  0  0  0  0  0  0  0  0  0  0  0
   28.4900   16.4085    5.0124 H   0  0  0  0  0  0  0  0  0  0  0  0
   23.4868   14.8807    8.2701 H   0  0  0  0  0  0  0  0  0  0  0  0
   22.6258   15.2275   10.6105 H   0  0  0  0  0  0  0  0  0  0  0  0
   26.9740   17.3341    9.1467 H   0  0  0  0  0  0  0  0  0  0  0  0
   24.2629   18.1755   14.6592 H   0  0  0  0  0  0  0  0  0  0  0  0
   26.0905   16.7289   15.3074 H   0  0  0  0  0  0  0  0  0  0  0  0
   27.2837   17.9004   14.6559 H   0  0  0  0  0  0  0  0  0  0  0  0
   25.2646   18.3962   16.9004 H   0  0  0  0  0  0  0  0  0  0  0  0
   27.0586   18.2189   17.0615 H   0  0  0  0  0  0  0  0  0  0  0  0
   25.9384   21.5724   14.8971 H   0  0  0  0  0  0  0  0  0  0  0  0
   23.4920   10.9844    3.1988 H   0  0  0  0  0  0  0  0  0  0  0  0
  1  2  1  0
  2  3  1  0
  3  4  2  0
  4  5  1  0
  5  6  1  0
  6  7  2  0
  6  8  2  0
  6  9  1  0
  9 10  1  0
 10 11  2  0
 11 12  1  0
 12 13  2  0
 13 14  1  0
 14 15  2  0
 15 16  1  0
 16 17  3  0
 17 18  1  0
 18 19  2  0
 19 20  1  0
 20 21  2  0
 21 22  1  0
 22 23  2  0
 22 24  1  0
 24 25  2  0
 24 26  1  0
 26 27  1  0
 27 28  1  0
 28 29  1  0
 29 30  1  0
 30 31  2  0
 30 32  1  0
 32 33  1  0
 33 34  2  0
 26 35  1  0
 35 36  2  0
  5 37  1  0
 37 38  2  0
 38  3  1  0
 15 10  1  0
 23 18  1  0
 33 27  1  0
 35 21  1  0
  1 39  1  0
  1 40  1  0
  1 41  1  0
  2 42  1  0
  2 43  1  0
  4 44  1  0
 11 45  1  0
 12 46  1  0
 13 47  1  0
 14 48  1  0
 19 49  1  0
 20 50  1  0
 23 51  1  0
 27 52  1  1
 28 53  1  0
 28 54  1  0
 29 55  1  0
 29 56  1  0
 32 57  1  0
 37 58  1  0
M  END
>  <meeko>  (157) 
{"is_sidechain": [true], "free_energy": -13.99, "intermolecular_energy": 0.0, "internal_energy": -13.99, "cluster_size": 8, "cluster_id": 1, "rank_in_cluster": 1}

>  <_RMSD_MCS_to_ref>  (157) 
0.5837710888786174

$$$$
ligand
     RDKit          3D

 61 66  0  0  0  0  0  0  0  0999 V2000
   24.8710    9.6160    7.7820 C   0  0  0  0  0  0  0  0  0  0  0  0
   25.4240   10.9650    7.3490 C   0  0  0  0  0  0  0  0  0  0  0  0
   26.8760   11.1030    7.6490 C   0  0  0  0  0  0  0  0  0  0  0  0
   27.4970   11.9550    8.5410 C   0  0  0  0  0  0  0  0  0  0  0  0
   28.8240   11.6570    8.4240 N   0  0  0  0  0  0  0  0  0  0  0  0
   30.1010   12.5490    9.0640 S   0  0  0  0  0  6  0  0  0  0  0  0
   29.5610   13.0800   10.3030 O   0  0  0  0  0  0  0  0  0  0  0  0
   31.2390   11.6470    9.0850 O   0  0  0  0  0  0  0  0  0  0  0  0
   30.3830   13.8230    8.0700 O   0  0  0  0  0  0  0  0  0  0  0  0
   29.7230   13.8760    6.8650 C   0  0  0  0  0  0  0  0  0  0  0  0
   30.4280   13.4730    5.7350 C   0  0  0  0  0  0  0  0  0  0  0  0
   29.7670   13.5230    4.5260 C   0  0  0  0  0  0  0  0  0  0  0  0
   28.4940   13.9480    4.3950 N   0  0  0  0  0  0  0  0  0  0  0  0
   27.8440   14.3500    5.5080 C   0  0  0  0  0  0  0  0  0  0  0  0
   26.5390   14.7970    5.4140 C   0  0  0  0  0  0  0  0  0  0  0  0
   25.8460   15.2310    6.5430 C   0  0  0  0  0  0  0  0  0  0  0  0
   26.4930   15.2180    7.7730 C   0  0  0  0  0  0  0  0  0  0  0  0
   25.8480   15.6800    9.0110 C   0  0  0  0  0  0  0  0  0  0  0  0
   24.5260   15.2870    9.3450 C   0  0  0  0  0  0  0  0  0  0  0  0
   23.9130   15.7060   10.5310 C   0  0  0  0  0  0  0  0  0  0  0  0
   24.6480   16.5140   11.3730 C   0  0  0  0  0  0  0  0  0  0  0  0
   25.9420   16.9250   11.0770 C   0  0  0  0  0  0  0  0  0  0  0  0
   26.5500   16.5190    9.9010 C   0  0  0  0  0  0  0  0  0  0  0  0
   26.4720   17.7850   12.1720 C   0  0  0  0  0  0  0  0  0  0  0  0
   25.4030   17.7320   13.1610 N   0  0  0  0  0  0  0  0  0  0  0  0
   25.4190   18.5880   14.3400 C   0  0  2  0  0  0  0  0  0  0  0  0
   26.0300   19.9650   14.0890 C   0  0  0  0  0  0  0  0  0  0  0  0
   25.9440   20.7940   15.3620 C   0  0  0  0  0  0  0  0  0  0  0  0
   26.6240   20.0950   16.5160 C   0  0  0  0  0  0  0  0  0  0  0  0
   27.0520   20.7070   17.4900 O   0  0  0  0  0  0  0  0  0  0  0  0
   26.6680   18.7230   16.4680 N   0  0  0  0  0  0  0  0  0  0  0  0
   26.1180   17.8920   15.5190 C   0  0  0  0  0  0  0  0  0  0  0  0
   26.1130   16.6740   15.6900 O   0  0  0  0  0  0  0  0  0  0  0  0
   24.2830   17.0720   12.6800 C   0  0  0  0  0  0  0  0  0  0  0  0
   23.1890   16.9570   13.1980 O   0  0  0  0  0  0  0  0  0  0  0  0
   27.7720   14.7860    7.9010 N   0  0  0  0  0  0  0  0  0  0  0  0
   28.4180   14.3520    6.7910 C   0  0  0  0  0  0  0  0  0  0  0  0
   28.9830   10.7240    7.4490 C   0  0  0  0  0  0  0  0  0  0  0  0
   27.8130   10.3330    6.9830 N   0  0  0  0  0  0  0  0  0  0  0  0
   24.8497    9.5640    8.8806 H   0  0  0  0  0  0  0  0  0  0  0  0
   23.8507    9.4948    7.3893 H   0  0  0  0  0  0  0  0  0  0  0  0
   25.5127    8.8135    7.3893 H   0  0  0  0  0  0  0  0  0  0  0  0
   25.2745   11.0772    6.2650 H   0  0  0  0  0  0  0  0  0  0  0  0
   24.8886   11.7444    7.9111 H   0  0  0  0  0  0  0  0  0  0  0  0
   27.0287   12.7037    9.1968 H   0  0  0  0  0  0  0  0  0  0  0  0
   31.4704   13.1285    5.8035 H   0  0  0  0  0  0  0  0  0  0  0  0
   30.3053   13.1999    3.6228 H   0  0  0  0  0  0  0  0  0  0  0  0
   26.0402   14.8104    4.4337 H   0  0  0  0  0  0  0  0  0  0  0  0
   24.8052   15.5777    6.4618 H   0  0  0  0  0  0  0  0  0  0  0  0
   23.9692   14.6367    8.6543 H   0  0  0  0  0  0  0  0  0  0  0  0
   22.8857   15.4030   10.7818 H   0  0  0  0  0  0  0  0  0  0  0  0
   27.5722   16.8482    9.6629 H   0  0  0  0  0  0  0  0  0  0  0  0
   27.4098   17.3782   12.5783 H   0  0  0  0  0  0  0  0  0  0  0  0
   26.7180   18.8067   11.8468 H   0  0  0  0  0  0  0  0  0  0  0  0
   24.3639   18.7613   14.5983 H   0  0  0  0  0  0  0  0  0  0  0  0
   27.0839   19.8512   13.7953 H   0  0  0  0  0  0  0  0  0  0  0  0
   25.4789   20.4708   13.2825 H   0  0  0  0  0  0  0  0  0  0  0  0
   26.4330   21.7645   15.1919 H   0  0  0  0  0  0  0  0  0  0  0  0
   24.8828   20.9337   15.6158 H   0  0  0  0  0  0  0  0  0  0  0  0
   27.1744   18.2597   17.2360 H   0  0  0  0  0  0  0  0  0  0  0  0
   29.9544   10.3467    7.0968 H   0  0  0  0  0  0  0  0  0  0  0  0
  1  2  1  0
  2  3  1  0
  3  4  2  0
  4  5  1  0
  5  6  1  0
  6  7  2  0
  6  8  2  0
  6  9  1  0
  9 10  1  0
 10 11  2  0
 11 12  1  0
 12 13  2  0
 13 14  1  0
 14 15  2  0
 15 16  1  0
 16 17  2  0
 17 18  1  0
 18 19  2  0
 19 20  1  0
 20 21  2  0
 21 22  1  0
 22 23  2  0
 22 24  1  0
 24 25  1  0
 25 26  1  0
 26 27  1  0
 27 28  1  0
 28 29  1  0
 29 30  2  0
 29 31  1  0
 31 32  1  0
 32 33  2  0
 25 34  1  0
 34 35  2  0
 17 36  1  0
 36 37  2  0
  5 38  1  0
 38 39  2  0
 39  3  1  0
 37 10  1  0
 37 14  1  0
 23 18  1  0
 32 26  1  0
 34 21  1  0
  1 40  1  0
  1 41  1  0
  1 42  1  0
  2 43  1  0
  2 44  1  0
  4 45  1  0
 11 46  1  0
 12 47  1  0
 15 48  1  0
 16 49  1  0
 19 50  1  0
 20 51  1  0
 23 52  1  0
 24 53  1  0
 24 54  1  0
 26 55  1  1
 27 56  1  0
 27 57  1  0
 28 58  1  0
 28 59  1  0
 31 60  1  0
 38 61  1  0
M  END
>  <meeko>  (158) 
{"is_sidechain": [true], "free_energy": -13.99, "intermolecular_energy": 0.0, "internal_energy": -13.99, "cluster_size": 14, "cluster_id": 1, "rank_in_cluster": 1}

>  <_RMSD_MCS_to_ref>  (158) 
1.678812722698615

$$$$
ligand
     RDKit          3D

 61 66  0  0  0  0  0  0  0  0999 V2000
   24.8540    9.4020    7.6050 C   0  0  0  0  0  0  0  0  0  0  0  0
   25.5230   10.7550    7.4270 C   0  0  0  0  0  0  0  0  0  0  0  0
   25.3370   11.2980    6.0530 C   0  0  0  0  0  0  0  0  0  0  0  0
   26.2390   11.9760    5.2570 C   0  0  0  0  0  0  0  0  0  0  0  0
   25.5540   12.2080    4.0980 N   0  0  0  0  0  0  0  0  0  0  0  0
   26.0530   13.2250    2.8510 S   0  0  0  0  0  6  0  0  0  0  0  0
   27.3200   12.6770    2.4070 O   0  0  0  0  0  0  0  0  0  0  0  0
   24.9110   13.3170    1.9620 O   0  0  0  0  0  0  0  0  0  0  0  0
   26.3140   14.6810    3.5310 O   0  0  0  0  0  0  0  0  0  0  0  0
   25.9960   14.9530    4.8390 C   0  0  0  0  0  0  0  0  0  0  0  0
   24.7370   15.3150    5.2920 C   0  0  0  0  0  0  0  0  0  0  0  0
   24.4500   15.5790    6.5850 N   0  0  0  0  0  0  0  0  0  0  0  0
   25.4540   15.4930    7.4950 C   0  0  0  0  0  0  0  0  0  0  0  0
   25.0290   15.8350    8.8630 C   0  0  0  0  0  0  0  0  0  0  0  0
   23.7590   15.4310    9.3530 C   0  0  0  0  0  0  0  0  0  0  0  0
   23.3410   15.7500   10.6490 C   0  0  0  0  0  0  0  0  0  0  0  0
   24.2210   16.4630   11.4390 C   0  0  0  0  0  0  0  0  0  0  0  0
   25.4790   16.8610   10.9950 C   0  0  0  0  0  0  0  0  0  0  0  0
   25.8970   16.5520    9.7120 C   0  0  0  0  0  0  0  0  0  0  0  0
   26.1860   17.6140   12.0730 C   0  0  0  0  0  0  0  0  0  0  0  0
   25.2490   17.5310   13.1860 N   0  0  0  0  0  0  0  0  0  0  0  0
   25.3670   18.3340   14.3970 C   0  0  1  0  0  0  0  0  0  0  0  0
   26.2970   17.7010   15.4290 C   0  0  0  0  0  0  0  0  0  0  0  0
   26.2980   18.5480   16.6920 C   0  0  0  0  0  0  0  0  0  0  0  0
   26.6770   19.9800   16.3910 C   0  0  0  0  0  0  0  0  0  0  0  0
   27.3410   20.6600   17.1650 O   0  0  0  0  0  0  0  0  0  0  0  0
   26.2240   20.4960   15.2040 N   0  0  0  0  0  0  0  0  0  0  0  0
   25.8470   19.7650   14.1010 C   0  0  0  0  0  0  0  0  0  0  0  0
   25.9150   20.2580   12.9770 O   0  0  0  0  0  0  0  0  0  0  0  0
   24.0530   16.9310   12.8180 C   0  0  0  0  0  0  0  0  0  0  0  0
   23.0430   16.8030   13.4820 O   0  0  0  0  0  0  0  0  0  0  0  0
   26.7710   15.1120    7.1520 C   0  0  0  0  0  0  0  0  0  0  0  0
   27.8290   14.9660    8.0780 C   0  0  0  0  0  0  0  0  0  0  0  0
   29.0820   14.5910    7.6290 C   0  0  0  0  0  0  0  0  0  0  0  0
   29.3640   14.3460    6.3380 N   0  0  0  0  0  0  0  0  0  0  0  0
   28.3440   14.4750    5.4600 C   0  0  0  0  0  0  0  0  0  0  0  0
   27.0330   14.8460    5.7910 C   0  0  0  0  0  0  0  0  0  0  0  0
   24.2800   11.7600    4.2380 C   0  0  0  0  0  0  0  0  0  0  0  0
   24.1230   11.1770    5.4080 N   0  0  0  0  0  0  0  0  0  0  0  0
   24.7464    9.1845    8.6779 H   0  0  0  0  0  0  0  0  0  0  0  0
   23.8606    9.4192    7.1330 H   0  0  0  0  0  0  0  0  0  0  0  0
   25.4708    8.6230    7.1330 H   0  0  0  0  0  0  0  0  0  0  0  0
   25.0893   11.4624    8.1492 H   0  0  0  0  0  0  0  0  0  0  0  0
   26.6021   10.6228    7.5947 H   0  0  0  0  0  0  0  0  0  0  0  0
   27.2725   12.2635    5.5004 H   0  0  0  0  0  0  0  0  0  0  0  0
   23.9239   15.3918    4.5551 H   0  0  0  0  0  0  0  0  0  0  0  0
   23.0889   14.8542    8.6986 H   0  0  0  0  0  0  0  0  0  0  0  0
   22.3525   15.4456   11.0234 H   0  0  0  0  0  0  0  0  0  0  0  0
   26.8921   16.8614    9.3598 H   0  0  0  0  0  0  0  0  0  0  0  0
   27.1455   17.1390   12.3255 H   0  0  0  0  0  0  0  0  0  0  0  0
   26.4400   18.6465   11.7911 H   0  0  0  0  0  0  0  0  0  0  0  0
   24.3511   18.3764   14.8167 H   0  0  0  0  0  0  0  0  0  0  0  0
   25.9450   16.6865   15.6674 H   0  0  0  0  0  0  0  0  0  0  0  0
   27.3172   17.6468   15.0212 H   0  0  0  0  0  0  0  0  0  0  0  0
   25.2923   18.5292   17.1371 H   0  0  0  0  0  0  0  0  0  0  0  0
   27.0394   18.1313   17.3896 H   0  0  0  0  0  0  0  0  0  0  0  0
   26.1603   21.5215   15.1317 H   0  0  0  0  0  0  0  0  0  0  0  0
   27.6567   15.1495    9.1488 H   0  0  0  0  0  0  0  0  0  0  0  0
   29.8907   14.4878    8.3675 H   0  0  0  0  0  0  0  0  0  0  0  0
   28.5601   14.2726    4.4006 H   0  0  0  0  0  0  0  0  0  0  0  0
   23.4900   11.8688    3.4804 H   0  0  0  0  0  0  0  0  0  0  0  0
  1  2  1  0
  2  3  1  0
  3  4  2  0
  4  5  1  0
  5  6  1  0
  6  7  2  0
  6  8  2  0
  6  9  1  0
  9 10  1  0
 10 11  2  0
 11 12  1  0
 12 13  2  0
 13 14  1  0
 14 15  2  0
 15 16  1  0
 16 17  2  0
 17 18  1  0
 18 19  2  0
 18 20  1  0
 20 21  1  0
 21 22  1  0
 22 23  1  0
 23 24  1  0
 24 25  1  0
 25 26  2  0
 25 27  1  0
 27 28  1  0
 28 29  2  0
 21 30  1  0
 30 31  2  0
 13 32  1  0
 32 33  2  0
 33 34  1  0
 34 35  2  0
 35 36  1  0
 36 37  2  0
  5 38  1  0
 38 39  2  0
 39  3  1  0
 37 10  1  0
 19 14  1  0
 28 22  1  0
 37 32  1  0
 30 17  1  0
  1 40  1  0
  1 41  1  0
  1 42  1  0
  2 43  1  0
  2 44  1  0
  4 45  1  0
 11 46  1  0
 15 47  1  0
 16 48  1  0
 19 49  1  0
 20 50  1  0
 20 51  1  0
 22 52  1  1
 23 53  1  0
 23 54  1  0
 24 55  1  0
 24 56  1  0
 27 57  1  0
 33 58  1  0
 34 59  1  0
 36 60  1  0
 38 61  1  0
M  END
>  <meeko>  (159) 
{"is_sidechain": [true], "free_energy": -13.98, "intermolecular_energy": 0.0, "internal_energy": -13.98, "cluster_size": 20, "cluster_id": 1, "rank_in_cluster": 1}

>  <_RMSD_MCS_to_ref>  (159) 
0.6794560733083153

$$$$
ligand
     RDKit          3D

 63 68  0  0  0  0  0  0  0  0999 V2000
   24.8540    9.4020    7.6050 C   0  0  0  0  0  0  0  0  0  0  0  0
   25.5230   10.7550    7.4270 C   0  0  0  0  0  0  0  0  0  0  0  0
   27.0070   10.6530    7.4300 C   0  0  0  0  0  0  0  0  0  0  0  0
   27.9450   11.5830    7.0260 C   0  0  0  0  0  0  0  0  0  0  0  0
   29.1440   10.9530    7.2100 N   0  0  0  0  0  0  0  0  0  0  0  0
   30.6630   11.6590    7.0360 S   0  0  0  0  0  6  0  0  0  0  0  0
   31.6030   10.6750    7.5440 O   0  0  0  0  0  0  0  0  0  0  0  0
   30.7170   12.0890    5.6500 O   0  0  0  0  0  0  0  0  0  0  0  0
   30.6720   12.9940    7.9810 O   0  0  0  0  0  0  0  0  0  0  0  0
   29.4660   13.4730    8.3980 C   0  0  0  0  0  0  0  0  0  0  0  0
   28.9210   13.0550    9.6060 C   0  0  0  0  0  0  0  0  0  0  0  0
   27.6760   13.5590   10.0210 C   0  0  0  0  0  0  0  0  0  0  0  0
   26.9610   14.4940    9.2450 C   0  0  0  0  0  0  0  0  0  0  0  0
   25.6580   14.9830    9.6880 C   0  0  0  0  0  0  0  0  0  0  0  0
   24.4670   14.5190    9.0980 C   0  0  0  0  0  0  0  0  0  0  0  0
   23.2040   14.9660    9.5320 C   0  0  0  0  0  0  0  0  0  0  0  0
   23.0990   15.8910   10.5690 C   0  0  0  0  0  0  0  0  0  0  0  0
   24.2750   16.3450   11.1340 C   0  0  0  0  0  0  0  0  0  0  0  0
   25.5340   15.9150   10.7130 C   0  0  0  0  0  0  0  0  0  0  0  0
   26.5940   16.5820   11.5290 C   0  0  0  0  0  0  0  0  0  0  0  0
   25.8260   17.4690   12.3920 N   0  0  0  0  0  0  0  0  0  0  0  0
   26.3870   18.1280   13.5660 C   0  0  2  0  0  0  0  0  0  0  0  0
   25.9350   17.4790   14.8710 C   0  0  0  0  0  0  0  0  0  0  0  0
   26.6330   18.1600   16.0400 C   0  0  0  0  0  0  0  0  0  0  0  0
   26.3880   19.6510   16.0310 C   0  0  0  0  0  0  0  0  0  0  0  0
   26.2760   20.3040   17.0640 O   0  0  0  0  0  0  0  0  0  0  0  0
   26.3190   20.2560   14.8020 N   0  0  0  0  0  0  0  0  0  0  0  0
   26.0430   19.6260   13.6090 C   0  0  0  0  0  0  0  0  0  0  0  0
   25.5460   20.2540   12.6750 O   0  0  0  0  0  0  0  0  0  0  0  0
   24.4590   17.2960   12.2340 C   0  0  0  0  0  0  0  0  0  0  0  0
   23.5590   17.8100   12.8710 O   0  0  0  0  0  0  0  0  0  0  0  0
   27.5390   14.9150    8.0460 C   0  0  0  0  0  0  0  0  0  0  0  0
   28.7710   14.4050    7.6510 C   0  0  0  0  0  0  0  0  0  0  0  0
   29.1350   15.0060    6.3760 C   0  0  0  0  0  0  0  0  0  0  0  0
   30.1640   14.7510    5.7760 O   0  0  0  0  0  0  0  0  0  0  0  0
   28.0540   15.9590    5.9390 C   0  0  0  0  0  0  0  0  0  0  0  0
   26.9970   15.9020    7.0540 C   0  0  0  0  0  0  0  0  0  0  0  0
   28.9250    9.7430    7.7830 C   0  0  0  0  0  0  0  0  0  0  0  0
   27.6330    9.5140    7.8970 N   0  0  0  0  0  0  0  0  0  0  0  0
   24.7464    9.1845    8.6779 H   0  0  0  0  0  0  0  0  0  0  0  0
   23.8606    9.4192    7.1330 H   0  0  0  0  0  0  0  0  0  0  0  0
   25.4708    8.6230    7.1330 H   0  0  0  0  0  0  0  0  0  0  0  0
   25.1996   11.1867    6.4683 H   0  0  0  0  0  0  0  0  0  0  0  0
   25.2267   11.3921    8.2733 H   0  0  0  0  0  0  0  0  0  0  0  0
   27.7675   12.5989    6.6434 H   0  0  0  0  0  0  0  0  0  0  0  0
   29.4617   12.3325   10.2351 H   0  0  0  0  0  0  0  0  0  0  0  0
   27.2491   13.2153   10.9748 H   0  0  0  0  0  0  0  0  0  0  0  0
   24.5243   13.7889    8.2773 H   0  0  0  0  0  0  0  0  0  0  0  0
   22.2935   14.5821    9.0488 H   0  0  0  0  0  0  0  0  0  0  0  0
   22.1197   16.2452   10.9232 H   0  0  0  0  0  0  0  0  0  0  0  0
   27.1605   15.8471   12.1197 H   0  0  0  0  0  0  0  0  0  0  0  0
   27.3450   17.1081   10.9214 H   0  0  0  0  0  0  0  0  0  0  0  0
   27.4767   18.0110   13.4717 H   0  0  0  0  0  0  0  0  0  0  0  0
   24.8459   17.5896   14.9784 H   0  0  0  0  0  0  0  0  0  0  0  0
   26.1936   16.4099   14.8597 H   0  0  0  0  0  0  0  0  0  0  0  0
   26.2493   17.7393   16.9811 H   0  0  0  0  0  0  0  0  0  0  0  0
   27.7151   17.9848   15.9488 H   0  0  0  0  0  0  0  0  0  0  0  0
   26.4886   21.2714   14.7684 H   0  0  0  0  0  0  0  0  0  0  0  0
   28.4550   16.9784    5.8384 H   0  0  0  0  0  0  0  0  0  0  0  0
   27.6352   15.6867    4.9590 H   0  0  0  0  0  0  0  0  0  0  0  0
   26.8716   16.8905    7.5199 H   0  0  0  0  0  0  0  0  0  0  0  0
   26.0077   15.6077    6.6736 H   0  0  0  0  0  0  0  0  0  0  0  0
   29.7156    9.0502    8.1070 H   0  0  0  0  0  0  0  0  0  0  0  0
  1  2  1  0
  2  3  1  0
  3  4  2  0
  4  5  1  0
  5  6  1  0
  6  7  2  0
  6  8  2  0
  6  9  1  0
  9 10  1  0
 10 11  2  0
 11 12  1  0
 12 13  2  0
 13 14  1  0
 14 15  2  0
 15 16  1  0
 16 17  2  0
 17 18  1  0
 18 19  2  0
 19 20  1  0
 20 21  1  0
 21 22  1  0
 22 23  1  0
 23 24  1  0
 24 25  1  0
 25 26  2  0
 25 27  1  0
 27 28  1  0
 28 29  2  0
 21 30  1  0
 30 31  2  0
 13 32  1  0
 32 33  2  0
 33 34  1  0
 34 35  2  0
 34 36  1  0
 36 37  1  0
  5 38  1  0
 38 39  2  0
 39  3  1  0
 33 10  1  0
 19 14  1  0
 28 22  1  0
 37 32  1  0
 30 18  1  0
  1 40  1  0
  1 41  1  0
  1 42  1  0
  2 43  1  0
  2 44  1  0
  4 45  1  0
 11 46  1  0
 12 47  1  0
 15 48  1  0
 16 49  1  0
 17 50  1  0
 20 51  1  0
 20 52  1  0
 22 53  1  6
 23 54  1  0
 23 55  1  0
 24 56  1  0
 24 57  1  0
 27 58  1  0
 36 59  1  0
 36 60  1  0
 37 61  1  0
 37 62  1  0
 38 63  1  0
M  END
>  <meeko>  (160) 
{"is_sidechain": [true], "free_energy": -13.98, "intermolecular_energy": 0.0, "internal_energy": -13.98, "cluster_size": 17, "cluster_id": 1, "rank_in_cluster": 1}

>  <_RMSD_MCS_to_ref>  (160) 
1.2080858597154602

$$$$
ligand
     RDKit          3D

 59 64  0  0  0  0  0  0  0  0999 V2000
   24.8540    9.4020    7.6050 C   0  0  0  0  0  0  0  0  0  0  0  0
   25.5230   10.7550    7.4270 C   0  0  0  0  0  0  0  0  0  0  0  0
   24.7680   11.6350    6.4950 C   0  0  0  0  0  0  0  0  0  0  0  0
   25.1970   12.2340    5.3260 C   0  0  0  0  0  0  0  0  0  0  0  0
   24.0920   12.8900    4.8640 N   0  0  0  0  0  0  0  0  0  0  0  0
   24.0650   13.9610    3.5660 S   0  0  0  0  0  6  0  0  0  0  0  0
   24.8430   13.3440    2.5070 O   0  0  0  0  0  0  0  0  0  0  0  0
   22.6510   14.2300    3.3730 O   0  0  0  0  0  0  0  0  0  0  0  0
   24.7660   15.3680    4.0280 O   0  0  0  0  0  0  0  0  0  0  0  0
   25.5870   15.4460    5.1470 C   0  0  0  0  0  0  0  0  0  0  0  0
   25.0510   15.6780    6.3550 C   0  0  0  0  0  0  0  0  0  0  0  0
   26.0110   15.7350    7.5070 C   0  0  0  0  0  0  0  0  0  0  0  0
   25.4300   16.0280    8.8500 C   0  0  0  0  0  0  0  0  0  0  0  0
   24.2230   15.4300    9.2810 C   0  0  0  0  0  0  0  0  0  0  0  0
   23.6950   15.7210   10.5430 C   0  0  0  0  0  0  0  0  0  0  0  0
   24.3880   16.6180   11.3320 C   0  0  0  0  0  0  0  0  0  0  0  0
   25.5700   17.2290   10.9200 C   0  0  0  0  0  0  0  0  0  0  0  0
   26.1040   16.9450    9.6760 C   0  0  0  0  0  0  0  0  0  0  0  0
   26.0790   18.1290   11.9960 C   0  0  0  0  0  0  0  0  0  0  0  0
   25.0270   18.0530   13.0020 N   0  0  0  0  0  0  0  0  0  0  0  0
   25.2160   18.6100   14.3370 C   0  0  1  0  0  0  0  0  0  0  0  0
   26.2970   17.9020   15.1520 C   0  0  0  0  0  0  0  0  0  0  0  0
   26.3680   18.5210   16.5400 C   0  0  0  0  0  0  0  0  0  0  0  0
   26.6220   20.0080   16.4650 C   0  0  0  0  0  0  0  0  0  0  0  0
   27.1240   20.6330   17.3950 O   0  0  0  0  0  0  0  0  0  0  0  0
   26.1870   20.6520   15.3340 N   0  0  0  0  0  0  0  0  0  0  0  0
   25.4910   20.1200   14.2730 C   0  0  0  0  0  0  0  0  0  0  0  0
   25.0400   20.8550   13.3940 O   0  0  0  0  0  0  0  0  0  0  0  0
   24.0720   17.1000   12.6810 C   0  0  0  0  0  0  0  0  0  0  0  0
   23.1470   16.6940   13.3570 O   0  0  0  0  0  0  0  0  0  0  0  0
   27.2940   15.5260    7.4100 N   0  0  0  0  0  0  0  0  0  0  0  0
   27.7860   15.2670    6.1640 C   0  0  0  0  0  0  0  0  0  0  0  0
   29.0620   15.0050    5.7190 C   0  0  0  0  0  0  0  0  0  0  0  0
   28.9300   14.7950    4.3380 C   0  0  0  0  0  0  0  0  0  0  0  0
   27.6700   14.9060    3.9180 N   0  0  0  0  0  0  0  0  0  0  0  0
   26.9660   15.2270    5.0350 N   0  0  0  0  0  0  0  0  0  0  0  0
   23.0830   12.7560    5.7640 C   0  0  0  0  0  0  0  0  0  0  0  0
   23.4540   11.9730    6.7580 N   0  0  0  0  0  0  0  0  0  0  0  0
   24.7464    9.1845    8.6779 H   0  0  0  0  0  0  0  0  0  0  0  0
   23.8606    9.4192    7.1330 H   0  0  0  0  0  0  0  0  0  0  0  0
   25.4708    8.6230    7.1330 H   0  0  0  0  0  0  0  0  0  0  0  0
   25.5885   11.2499    8.4072 H   0  0  0  0  0  0  0  0  0  0  0  0
   26.5215   10.5850    6.9979 H   0  0  0  0  0  0  0  0  0  0  0  0
   26.1981   12.1921    4.8721 H   0  0  0  0  0  0  0  0  0  0  0  0
   23.9688   15.8185    6.4931 H   0  0  0  0  0  0  0  0  0  0  0  0
   23.6946   14.7296    8.6175 H   0  0  0  0  0  0  0  0  0  0  0  0
   22.7633   15.2532   10.8938 H   0  0  0  0  0  0  0  0  0  0  0  0
   27.0348   17.4256    9.3405 H   0  0  0  0  0  0  0  0  0  0  0  0
   27.0373   17.7663   12.3961 H   0  0  0  0  0  0  0  0  0  0  0  0
   26.2784   19.1538   11.6497 H   0  0  0  0  0  0  0  0  0  0  0  0
   24.2678   18.4375   14.8672 H   0  0  0  0  0  0  0  0  0  0  0  0
   26.0509   16.8334   15.2386 H   0  0  0  0  0  0  0  0  0  0  0  0
   27.2690   18.0132   14.6492 H   0  0  0  0  0  0  0  0  0  0  0  0
   25.4144   18.3461   17.0596 H   0  0  0  0  0  0  0  0  0  0  0  0
   27.2003   18.0536   17.0866 H   0  0  0  0  0  0  0  0  0  0  0  0
   26.4085   21.6560   15.2718 H   0  0  0  0  0  0  0  0  0  0  0  0
   29.9849   14.9682    6.3164 H   0  0  0  0  0  0  0  0  0  0  0  0
   29.7755   14.5636    3.6735 H   0  0  0  0  0  0  0  0  0  0  0  0
   22.0959   13.2333    5.6759 H   0  0  0  0  0  0  0  0  0  0  0  0
  1  2  1  0
  2  3  1  0
  3  4  2  0
  4  5  1  0
  5  6  1  0
  6  7  2  0
  6  8  2  0
  6  9  1  0
  9 10  1  0
 10 11  2  0
 11 12  1  0
 12 13  1  0
 13 14  2  0
 14 15  1  0
 15 16  2  0
 16 17  1  0
 17 18  2  0
 17 19  1  0
 19 20  1  0
 20 21  1  0
 21 22  1  0
 22 23  1  0
 23 24  1  0
 24 25  2  0
 24 26  1  0
 26 27  1  0
 27 28  2  0
 20 29  1  0
 29 30  2  0
 12 31  2  0
 31 32  1  0
 32 33  2  0
 33 34  1  0
 34 35  2  0
 35 36  1  0
  5 37  1  0
 37 38  2  0
 38  3  1  0
 36 10  1  0
 18 13  1  0
 27 21  1  0
 36 32  1  0
 29 16  1  0
  1 39  1  0
  1 40  1  0
  1 41  1  0
  2 42  1  0
  2 43  1  0
  4 44  1  0
 11 45  1  0
 14 46  1  0
 15 47  1  0
 18 48  1  0
 19 49  1  0
 19 50  1  0
 21 51  1  1
 22 52  1  0
 22 53  1  0
 23 54  1  0
 23 55  1  0
 26 56  1  0
 33 57  1  0
 34 58  1  0
 37 59  1  0
M  END
>  <meeko>  (161) 
{"is_sidechain": [true], "free_energy": -13.97, "intermolecular_energy": 0.0, "internal_energy": -13.97, "cluster_size": 17, "cluster_id": 1, "rank_in_cluster": 1}

>  <_RMSD_MCS_to_ref>  (161) 
0.49365563795918366

$$$$
ligand
     RDKit          3D

 62 67  0  0  0  0  0  0  0  0999 V2000
   24.8540    9.4020    7.6050 C   0  0  0  0  0  0  0  0  0  0  0  0
   25.5230   10.7550    7.4270 C   0  0  0  0  0  0  0  0  0  0  0  0
   25.1010   11.4310    6.1680 C   0  0  0  0  0  0  0  0  0  0  0  0
   23.9220   12.0980    5.8920 C   0  0  0  0  0  0  0  0  0  0  0  0
   24.0620   12.5060    4.5960 N   0  0  0  0  0  0  0  0  0  0  0  0
   23.0940   13.6420    3.8050 S   0  0  0  0  0  6  0  0  0  0  0  0
   23.3800   13.4430    2.3970 O   0  0  0  0  0  0  0  0  0  0  0  0
   21.7600   13.4330    4.3370 O   0  0  0  0  0  0  0  0  0  0  0  0
   23.6760   15.1140    4.2370 O   0  0  0  0  0  0  0  0  0  0  0  0
   25.0090   15.3860    4.0500 C   0  0  0  0  0  0  0  0  0  0  0  0
   25.5370   15.2990    2.7690 C   0  0  0  0  0  0  0  0  0  0  0  0
   26.8800   15.5740    2.6210 C   0  0  0  0  0  0  0  0  0  0  0  0
   27.6950   15.9100    3.6430 N   0  0  0  0  0  0  0  0  0  0  0  0
   27.1780   15.9750    4.8830 C   0  0  0  0  0  0  0  0  0  0  0  0
   28.0000   16.3330    5.9410 C   0  0  0  0  0  0  0  0  0  0  0  0
   27.5190   16.4350    7.2520 C   0  0  0  0  0  0  0  0  0  0  0  0
   26.1820   16.1540    7.5440 C   0  0  0  0  0  0  0  0  0  0  0  0
   25.6350   16.3050    8.9010 C   0  0  0  0  0  0  0  0  0  0  0  0
   24.3180   15.8770    9.2070 C   0  0  0  0  0  0  0  0  0  0  0  0
   23.7450   16.0810   10.4710 C   0  0  0  0  0  0  0  0  0  0  0  0
   24.5040   16.7160   11.4320 C   0  0  0  0  0  0  0  0  0  0  0  0
   25.8030   17.1210   11.1410 C   0  0  0  0  0  0  0  0  0  0  0  0
   26.3900   16.9310    9.9040 C   0  0  0  0  0  0  0  0  0  0  0  0
   26.3480   17.7950   12.3230 C   0  0  0  0  0  0  0  0  0  0  0  0
   27.4280   18.3500   12.3630 O   0  0  0  0  0  0  0  0  0  0  0  0
   25.3870   17.6990   13.3190 N   0  0  0  0  0  0  0  0  0  0  0  0
   25.4210   18.4690   14.5580 C   0  0  1  0  0  0  0  0  0  0  0  0
   26.3720   17.9010   15.6100 C   0  0  0  0  0  0  0  0  0  0  0  0
   26.2840   18.7410   16.8730 C   0  0  0  0  0  0  0  0  0  0  0  0
   26.5860   20.1950   16.5890 C   0  0  0  0  0  0  0  0  0  0  0  0
   26.9930   20.9600   17.4570 O   0  0  0  0  0  0  0  0  0  0  0  0
   26.3030   20.6460   15.3240 N   0  0  0  0  0  0  0  0  0  0  0  0
   25.7460   19.9450   14.2790 C   0  0  0  0  0  0  0  0  0  0  0  0
   25.4490   20.5210   13.2330 O   0  0  0  0  0  0  0  0  0  0  0  0
   24.1450   17.1230   12.8210 C   0  0  0  0  0  0  0  0  0  0  0  0
   25.3520   15.7640    6.4830 C   0  0  0  0  0  0  0  0  0  0  0  0
   25.8240   15.7000    5.1520 C   0  0  0  0  0  0  0  0  0  0  0  0
   25.2920   12.1450    4.1470 C   0  0  0  0  0  0  0  0  0  0  0  0
   25.9450   11.4780    5.0750 N   0  0  0  0  0  0  0  0  0  0  0  0
   24.7464    9.1845    8.6779 H   0  0  0  0  0  0  0  0  0  0  0  0
   23.8606    9.4192    7.1330 H   0  0  0  0  0  0  0  0  0  0  0  0
   25.4708    8.6230    7.1330 H   0  0  0  0  0  0  0  0  0  0  0  0
   25.2567   11.3966    8.2799 H   0  0  0  0  0  0  0  0  0  0  0  0
   26.6092   10.5899    7.3736 H   0  0  0  0  0  0  0  0  0  0  0  0
   23.0662   12.2626    6.5631 H   0  0  0  0  0  0  0  0  0  0  0  0
   24.9103   15.0223    1.9083 H   0  0  0  0  0  0  0  0  0  0  0  0
   27.3124   15.5162    1.6112 H   0  0  0  0  0  0  0  0  0  0  0  0
   29.0617   16.5431    5.7444 H   0  0  0  0  0  0  0  0  0  0  0  0
   28.2005   16.7394    8.0600 H   0  0  0  0  0  0  0  0  0  0  0  0
   23.7279   15.3697    8.4295 H   0  0  0  0  0  0  0  0  0  0  0  0
   22.7207   15.7446   10.6894 H   0  0  0  0  0  0  0  0  0  0  0  0
   27.4213   17.2617    9.7113 H   0  0  0  0  0  0  0  0  0  0  0  0
   24.4099   18.3931   14.9846 H   0  0  0  0  0  0  0  0  0  0  0  0
   26.0890   16.8629   15.8388 H   0  0  0  0  0  0  0  0  0  0  0  0
   27.4022   17.9219   15.2248 H   0  0  0  0  0  0  0  0  0  0  0  0
   25.2679   18.6604   17.2866 H   0  0  0  0  0  0  0  0  0  0  0  0
   27.0280   18.3662   17.5913 H   0  0  0  0  0  0  0  0  0  0  0  0
   26.5364   21.6309   15.1333 H   0  0  0  0  0  0  0  0  0  0  0  0
   23.8419   16.2536   13.4229 H   0  0  0  0  0  0  0  0  0  0  0  0
   23.2937   17.8183   12.8651 H   0  0  0  0  0  0  0  0  0  0  0  0
   24.3047   15.5006    6.6923 H   0  0  0  0  0  0  0  0  0  0  0  0
   25.6873   12.3776    3.1472 H   0  0  0  0  0  0  0  0  0  0  0  0
  1  2  1  0
  2  3  1  0
  3  4  2  0
  4  5  1  0
  5  6  1  0
  6  7  2  0
  6  8  2  0
  6  9  1  0
  9 10  1  0
 10 11  2  0
 11 12  1  0
 12 13  2  0
 13 14  1  0
 14 15  2  0
 15 16  1  0
 16 17  2  0
 17 18  1  0
 18 19  2  0
 19 20  1  0
 20 21  2  0
 21 22  1  0
 22 23  2  0
 22 24  1  0
 24 25  2  0
 24 26  1  0
 26 27  1  0
 27 28  1  0
 28 29  1  0
 29 30  1  0
 30 31  2  0
 30 32  1  0
 32 33  1  0
 33 34  2  0
 26 35  1  0
 17 36  1  0
 36 37  2  0
  5 38  1  0
 38 39  2  0
 39  3  1  0
 37 10  1  0
 37 14  1  0
 23 18  1  0
 33 27  1  0
 35 21  1  0
  1 40  1  0
  1 41  1  0
  1 42  1  0
  2 43  1  0
  2 44  1  0
  4 45  1  0
 11 46  1  0
 12 47  1  0
 15 48  1  0
 16 49  1  0
 19 50  1  0
 20 51  1  0
 23 52  1  0
 27 53  1  1
 28 54  1  0
 28 55  1  0
 29 56  1  0
 29 57  1  0
 32 58  1  0
 35 59  1  0
 35 60  1  0
 36 61  1  0
 38 62  1  0
M  END
>  <meeko>  (162) 
{"is_sidechain": [true], "free_energy": -13.96, "intermolecular_energy": 0.0, "internal_energy": -13.96, "cluster_size": 11, "cluster_id": 1, "rank_in_cluster": 1}

>  <_RMSD_MCS_to_ref>  (162) 
0.6058742993944091

$$$$
ligand
     RDKit          3D

 59 63  0  0  0  0  0  0  0  0999 V2000
   24.8710    9.6160    7.7820 C   0  0  0  0  0  0  0  0  0  0  0  0
   25.4240   10.9650    7.3490 C   0  0  0  0  0  0  0  0  0  0  0  0
   26.9070   11.0260    7.4550 C   0  0  0  0  0  0  0  0  0  0  0  0
   27.6850   11.6990    8.3760 C   0  0  0  0  0  0  0  0  0  0  0  0
   28.9670   11.3840    8.0250 N   0  0  0  0  0  0  0  0  0  0  0  0
   30.3600   12.1140    8.6320 S   0  0  0  0  0  6  0  0  0  0  0  0
   31.4530   11.3310    8.0860 O   0  0  0  0  0  0  0  0  0  0  0  0
   30.1320   12.2070   10.0620 O   0  0  0  0  0  0  0  0  0  0  0  0
   30.3920   13.6110    7.9880 O   0  0  0  0  0  0  0  0  0  0  0  0
   29.3230   14.2090    7.4140 C   0  0  0  0  0  0  0  0  0  0  0  0
   29.1620   14.4650    6.0700 C   0  0  0  0  0  0  0  0  0  0  0  0
   27.6710   15.2420    5.7340 S   0  0  0  0  0  0  0  0  0  0  0  0
   27.2390   15.2420    7.3800 C   0  0  0  0  0  0  0  0  0  0  0  0
   28.2040   14.6520    8.1780 C   0  0  0  0  0  0  0  0  0  0  0  0
   28.0170   14.5550    9.6660 C   0  0  0  0  0  0  0  0  0  0  0  0
   26.5320   14.7350   10.0200 C   0  0  0  0  0  0  0  0  0  0  0  0
   25.9660   15.9030    9.3310 N   0  0  0  0  0  0  0  0  0  0  0  0
   25.8940   17.1040   10.0360 C   0  0  0  0  0  0  0  0  0  0  0  0
   26.3430   18.1630    9.6030 O   0  0  0  0  0  0  0  0  0  0  0  0
   25.2750   17.1180   11.3820 C   0  0  0  0  0  0  0  0  0  0  0  0
   24.1040   16.3930   11.5960 C   0  0  0  0  0  0  0  0  0  0  0  0
   23.5040   16.4180   12.8510 C   0  0  0  0  0  0  0  0  0  0  0  0
   24.0710   17.1710   13.8870 C   0  0  0  0  0  0  0  0  0  0  0  0
   25.2440   17.9180   13.6880 C   0  0  0  0  0  0  0  0  0  0  0  0
   25.8330   18.6870   14.7470 N   0  0  0  0  0  0  0  0  0  0  0  0
   26.5910   18.0120   15.7960 C   0  0  0  0  0  0  0  0  0  0  0  0
   26.3920   18.6960   17.1320 C   0  0  0  0  0  0  0  0  0  0  0  0
   26.7190   20.1500   16.9950 C   0  0  0  0  0  0  0  0  0  0  0  0
   27.0620   20.8420   17.9500 O   0  0  0  0  0  0  0  0  0  0  0  0
   26.5290   20.6880   15.7530 N   0  0  0  0  0  0  0  0  0  0  0  0
   25.9160   20.0840   14.6810 C   0  0  0  0  0  0  0  0  0  0  0  0
   25.5120   20.7950   13.7620 O   0  0  0  0  0  0  0  0  0  0  0  0
   25.8190   17.9000   12.4100 C   0  0  0  0  0  0  0  0  0  0  0  0
   25.9300   15.8160    7.8570 C   0  0  0  0  0  0  0  0  0  0  0  0
   28.9460   10.6280    6.8980 C   0  0  0  0  0  0  0  0  0  0  0  0
   27.7060   10.3690    6.5400 N   0  0  0  0  0  0  0  0  0  0  0  0
   24.8497    9.5640    8.8806 H   0  0  0  0  0  0  0  0  0  0  0  0
   23.8507    9.4948    7.3893 H   0  0  0  0  0  0  0  0  0  0  0  0
   25.5127    8.8135    7.3893 H   0  0  0  0  0  0  0  0  0  0  0  0
   25.1361   11.1464    6.3030 H   0  0  0  0  0  0  0  0  0  0  0  0
   25.0063   11.7313    8.0185 H   0  0  0  0  0  0  0  0  0  0  0  0
   27.3493   12.3418    9.2031 H   0  0  0  0  0  0  0  0  0  0  0  0
   29.9038   14.2015    5.3017 H   0  0  0  0  0  0  0  0  0  0  0  0
   28.3575   13.5682   10.0127 H   0  0  0  0  0  0  0  0  0  0  0  0
   28.6044   15.3449   10.1569 H   0  0  0  0  0  0  0  0  0  0  0  0
   25.9778   13.8345    9.7166 H   0  0  0  0  0  0  0  0  0  0  0  0
   26.4462   14.8918   11.1054 H   0  0  0  0  0  0  0  0  0  0  0  0
   23.6580   15.8060   10.7796 H   0  0  0  0  0  0  0  0  0  0  0  0
   22.5822   15.8451   13.0300 H   0  0  0  0  0  0  0  0  0  0  0  0
   23.5885   17.1776   14.8755 H   0  0  0  0  0  0  0  0  0  0  0  0
   26.2509   16.9686   15.8714 H   0  0  0  0  0  0  0  0  0  0  0  0
   27.6595   18.0502   15.5374 H   0  0  0  0  0  0  0  0  0  0  0  0
   25.3453   18.5829   17.4507 H   0  0  0  0  0  0  0  0  0  0  0  0
   27.0525   18.2382   17.8831 H   0  0  0  0  0  0  0  0  0  0  0  0
   26.8814   21.6445   15.6050 H   0  0  0  0  0  0  0  0  0  0  0  0
   26.7124   18.5100   12.2104 H   0  0  0  0  0  0  0  0  0  0  0  0
   25.1023   15.1627    7.5439 H   0  0  0  0  0  0  0  0  0  0  0  0
   25.7766   16.8155    7.4240 H   0  0  0  0  0  0  0  0  0  0  0  0
   29.8399   10.2804    6.3593 H   0  0  0  0  0  0  0  0  0  0  0  0
  1  2  1  0
  2  3  1  0
  3  4  2  0
  4  5  1  0
  5  6  1  0
  6  7  2  0
  6  8  2  0
  6  9  1  0
  9 10  1  0
 10 11  2  0
 11 12  1  0
 12 13  1  0
 13 14  2  0
 14 15  1  0
 15 16  1  0
 16 17  1  0
 17 18  1  0
 18 19  2  0
 18 20  1  0
 20 21  2  0
 21 22  1  0
 22 23  2  0
 23 24  1  0
 24 25  1  0
 25 26  1  0
 26 27  1  0
 27 28  1  0
 28 29  2  0
 28 30  1  0
 30 31  1  0
 31 32  2  0
 24 33  2  0
 17 34  1  0
  5 35  1  0
 35 36  2  0
 36  3  1  0
 14 10  1  0
 33 20  1  0
 34 13  1  0
 31 25  1  0
  1 37  1  0
  1 38  1  0
  1 39  1  0
  2 40  1  0
  2 41  1  0
  4 42  1  0
 11 43  1  0
 15 44  1  0
 15 45  1  0
 16 46  1  0
 16 47  1  0
 21 48  1  0
 22 49  1  0
 23 50  1  0
 26 51  1  0
 26 52  1  0
 27 53  1  0
 27 54  1  0
 30 55  1  0
 33 56  1  0
 34 57  1  0
 34 58  1  0
 35 59  1  0
M  END
>  <meeko>  (163) 
{"is_sidechain": [true], "free_energy": -13.96, "intermolecular_energy": 0.0, "internal_energy": -13.96, "cluster_size": 13, "cluster_id": 1, "rank_in_cluster": 1}

>  <_RMSD_MCS_to_ref>  (163) 
0.9870761115537143

$$$$
ligand
     RDKit          3D

 60 65  0  0  0  0  0  0  0  0999 V2000
   24.8710    9.6160    7.7820 C   0  0  0  0  0  0  0  0  0  0  0  0
   25.4240   10.9650    7.3490 C   0  0  0  0  0  0  0  0  0  0  0  0
   26.8020   11.1960    7.8590 C   0  0  0  0  0  0  0  0  0  0  0  0
   27.2050   11.8700    8.9960 C   0  0  0  0  0  0  0  0  0  0  0  0
   28.5650   11.7380    8.9950 N   0  0  0  0  0  0  0  0  0  0  0  0
   29.6220   12.5390   10.0320 S   0  0  0  0  0  6  0  0  0  0  0  0
   30.9290   12.2600    9.4610 O   0  0  0  0  0  0  0  0  0  0  0  0
   29.3060   12.0800   11.3740 O   0  0  0  0  0  0  0  0  0  0  0  0
   29.3730   14.1510    9.9020 O   0  0  0  0  0  0  0  0  0  0  0  0
   28.2110   14.6310    9.3330 C   0  0  0  0  0  0  0  0  0  0  0  0
   27.1280   14.8790   10.1870 C   0  0  0  0  0  0  0  0  0  0  0  0
   25.9090   15.3710    9.6930 C   0  0  0  0  0  0  0  0  0  0  0  0
   24.7780   15.5820   10.6010 C   0  0  0  0  0  0  0  0  0  0  0  0
   23.5260   14.9840   10.3550 C   0  0  0  0  0  0  0  0  0  0  0  0
   22.4370   15.1640   11.2300 C   0  0  0  0  0  0  0  0  0  0  0  0
   22.5710   15.9490   12.3750 C   0  0  0  0  0  0  0  0  0  0  0  0
   23.8010   16.5350   12.5990 C   0  0  0  0  0  0  0  0  0  0  0  0
   24.8900   16.3680   11.7420 C   0  0  0  0  0  0  0  0  0  0  0  0
   26.0650   17.1280   12.2670 C   0  0  0  0  0  0  0  0  0  0  0  0
   25.5220   17.7890   13.4460 N   0  0  0  0  0  0  0  0  0  0  0  0
   26.3490   18.4490   14.4490 C   0  0  2  0  0  0  0  0  0  0  0  0
   26.0750   17.9370   15.8590 C   0  0  0  0  0  0  0  0  0  0  0  0
   27.0360   18.6030   16.8340 C   0  0  0  0  0  0  0  0  0  0  0  0
   26.9440   20.1080   16.7470 C   0  0  0  0  0  0  0  0  0  0  0  0
   27.0640   20.8330   17.7310 O   0  0  0  0  0  0  0  0  0  0  0  0
   26.7360   20.6410   15.5000 N   0  0  0  0  0  0  0  0  0  0  0  0
   26.1750   19.9770   14.4320 C   0  0  0  0  0  0  0  0  0  0  0  0
   25.5760   20.6020   13.5600 O   0  0  0  0  0  0  0  0  0  0  0  0
   24.2180   17.3970   13.7100 C   0  0  0  0  0  0  0  0  0  0  0  0
   23.5270   17.6890   14.6660 O   0  0  0  0  0  0  0  0  0  0  0  0
   25.7660   15.6510    8.3190 C   0  0  0  0  0  0  0  0  0  0  0  0
   26.8720   15.4240    7.4950 C   0  0  0  0  0  0  0  0  0  0  0  0
   27.0780   15.5970    6.1490 N   0  0  0  0  0  0  0  0  0  0  0  0
   28.3640   15.2280    5.8710 C   0  0  0  0  0  0  0  0  0  0  0  0
   28.9960   14.8240    6.9500 N   0  0  0  0  0  0  0  0  0  0  0  0
   28.0820   14.9300    7.9680 C   0  0  0  0  0  0  0  0  0  0  0  0
   28.9490   11.0980    7.8610 C   0  0  0  0  0  0  0  0  0  0  0  0
   27.8980   10.7270    7.1590 N   0  0  0  0  0  0  0  0  0  0  0  0
   24.8497    9.5640    8.8806 H   0  0  0  0  0  0  0  0  0  0  0  0
   23.8507    9.4948    7.3893 H   0  0  0  0  0  0  0  0  0  0  0  0
   25.5127    8.8135    7.3893 H   0  0  0  0  0  0  0  0  0  0  0  0
   25.4416   11.0046    6.2499 H   0  0  0  0  0  0  0  0  0  0  0  0
   24.7732   11.7472    7.7669 H   0  0  0  0  0  0  0  0  0  0  0  0
   26.5761   12.3923    9.7320 H   0  0  0  0  0  0  0  0  0  0  0  0
   27.2347   14.6847   11.2644 H   0  0  0  0  0  0  0  0  0  0  0  0
   23.3959   14.3613    9.4576 H   0  0  0  0  0  0  0  0  0  0  0  0
   21.4735   14.6817   11.0086 H   0  0  0  0  0  0  0  0  0  0  0  0
   21.7316   16.0952   13.0707 H   0  0  0  0  0  0  0  0  0  0  0  0
   26.8873   16.4491   12.5370 H   0  0  0  0  0  0  0  0  0  0  0  0
   26.4934   17.8277   11.5343 H   0  0  0  0  0  0  0  0  0  0  0  0
   27.3858   18.2018   14.1770 H   0  0  0  0  0  0  0  0  0  0  0  0
   25.0396   18.1775   16.1421 H   0  0  0  0  0  0  0  0  0  0  0  0
   26.2183   16.8468   15.8885 H   0  0  0  0  0  0  0  0  0  0  0  0
   26.7859   18.2865   17.8574 H   0  0  0  0  0  0  0  0  0  0  0  0
   28.0614   18.3005   16.5750 H   0  0  0  0  0  0  0  0  0  0  0  0
   27.0232   21.6187   15.3503 H   0  0  0  0  0  0  0  0  0  0  0  0
   24.8192   16.0339    7.9104 H   0  0  0  0  0  0  0  0  0  0  0  0
   26.3861   15.9435    5.4692 H   0  0  0  0  0  0  0  0  0  0  0  0
   28.8144   15.2646    4.8681 H   0  0  0  0  0  0  0  0  0  0  0  0
   29.9935   10.9146    7.5688 H   0  0  0  0  0  0  0  0  0  0  0  0
  1  2  1  0
  2  3  1  0
  3  4  2  0
  4  5  1  0
  5  6  1  0
  6  7  2  0
  6  8  2  0
  6  9  1  0
  9 10  1  0
 10 11  2  0
 11 12  1  0
 12 13  1  0
 13 14  2  0
 14 15  1  0
 15 16  2  0
 16 17  1  0
 17 18  2  0
 18 19  1  0
 19 20  1  0
 20 21  1  0
 21 22  1  0
 22 23  1  0
 23 24  1  0
 24 25  2  0
 24 26  1  0
 26 27  1  0
 27 28  2  0
 20 29  1  0
 29 30  2  0
 12 31  2  0
 31 32  1  0
 32 33  1  0
 33 34  1  0
 34 35  2  0
 35 36  1  0
  5 37  1  0
 37 38  2  0
 38  3  1  0
 36 10  1  0
 18 13  1  0
 27 21  1  0
 36 32  2  0
 29 17  1  0
  1 39  1  0
  1 40  1  0
  1 41  1  0
  2 42  1  0
  2 43  1  0
  4 44  1  0
 11 45  1  0
 14 46  1  0
 15 47  1  0
 16 48  1  0
 19 49  1  0
 19 50  1  0
 21 51  1  6
 22 52  1  0
 22 53  1  0
 23 54  1  0
 23 55  1  0
 26 56  1  0
 31 57  1  0
 33 58  1  0
 34 59  1  0
 37 60  1  0
M  END
>  <meeko>  (164) 
{"is_sidechain": [true], "free_energy": -13.96, "intermolecular_energy": 0.0, "internal_energy": -13.96, "cluster_size": 14, "cluster_id": 1, "rank_in_cluster": 1}

>  <_RMSD_MCS_to_ref>  (164) 
1.387873293127935

$$$$
ligand
     RDKit          3D

 55 59  0  0  0  0  0  0  0  0999 V2000
   24.8540    9.4020    7.6050 C   0  0  0  0  0  0  0  0  0  0  0  0
   25.5230   10.7550    7.4270 C   0  0  0  0  0  0  0  0  0  0  0  0
   25.1360   11.4090    6.1470 C   0  0  0  0  0  0  0  0  0  0  0  0
   24.4310   12.5790    5.9480 C   0  0  0  0  0  0  0  0  0  0  0  0
   24.3650   12.7000    4.5900 N   0  0  0  0  0  0  0  0  0  0  0  0
   23.6390   13.9730    3.7550 S   0  0  0  0  0  6  0  0  0  0  0  0
   22.2210   13.7720    4.0100 O   0  0  0  0  0  0  0  0  0  0  0  0
   24.1480   13.9120    2.3960 O   0  0  0  0  0  0  0  0  0  0  0  0
   24.0560   15.3740    4.4480 O   0  0  0  0  0  0  0  0  0  0  0  0
   25.0530   15.3910    5.3810 C   0  0  0  0  0  0  0  0  0  0  0  0
   26.2980   15.0600    5.0290 N   0  0  0  0  0  0  0  0  0  0  0  0
   27.2100   15.0540    6.0160 C   0  0  0  0  0  0  0  0  0  0  0  0
   26.9090   15.3450    7.3250 C   0  0  0  0  0  0  0  0  0  0  0  0
   25.5900   15.6530    7.6010 C   0  0  0  0  0  0  0  0  0  0  0  0
   25.1050   15.9830    8.9590 C   0  0  0  0  0  0  0  0  0  0  0  0
   23.9140   15.4140    9.4850 C   0  0  0  0  0  0  0  0  0  0  0  0
   23.4520   15.7210   10.7720 C   0  0  0  0  0  0  0  0  0  0  0  0
   24.1970   16.6090   11.5180 C   0  0  0  0  0  0  0  0  0  0  0  0
   25.3640   17.1940   11.0410 C   0  0  0  0  0  0  0  0  0  0  0  0
   25.8260   16.8910    9.7690 C   0  0  0  0  0  0  0  0  0  0  0  0
   25.9500   18.0870   12.0800 C   0  0  0  0  0  0  0  0  0  0  0  0
   24.9500   18.0410   13.1400 N   0  0  0  0  0  0  0  0  0  0  0  0
   25.2180   18.6060   14.4580 C   0  0  1  0  0  0  0  0  0  0  0  0
   26.3160   17.8740   15.2310 C   0  0  0  0  0  0  0  0  0  0  0  0
   26.4690   18.5040   16.6060 C   0  0  0  0  0  0  0  0  0  0  0  0
   26.7650   19.9820   16.5020 C   0  0  0  0  0  0  0  0  0  0  0  0
   27.3300   20.6010   17.3990 O   0  0  0  0  0  0  0  0  0  0  0  0
   26.2950   20.6270   15.3860 N   0  0  0  0  0  0  0  0  0  0  0  0
   25.5330   20.1070   14.3650 C   0  0  0  0  0  0  0  0  0  0  0  0
   25.0620   20.8480   13.5030 O   0  0  0  0  0  0  0  0  0  0  0  0
   23.9610   17.1060   12.8780 C   0  0  0  0  0  0  0  0  0  0  0  0
   23.0640   16.7250   13.6040 O   0  0  0  0  0  0  0  0  0  0  0  0
   24.6520   15.6760    6.6260 N   0  0  0  0  0  0  0  0  0  0  0  0
   25.0010   11.6490    4.0130 C   0  0  0  0  0  0  0  0  0  0  0  0
   25.4850   10.8430    4.9350 N   0  0  0  0  0  0  0  0  0  0  0  0
   24.7464    9.1845    8.6779 H   0  0  0  0  0  0  0  0  0  0  0  0
   23.8606    9.4192    7.1330 H   0  0  0  0  0  0  0  0  0  0  0  0
   25.4708    8.6230    7.1330 H   0  0  0  0  0  0  0  0  0  0  0  0
   25.2290   11.4082    8.2618 H   0  0  0  0  0  0  0  0  0  0  0  0
   26.6110   10.5942    7.4089 H   0  0  0  0  0  0  0  0  0  0  0  0
   24.0176   13.2576    6.7087 H   0  0  0  0  0  0  0  0  0  0  0  0
   28.2508   14.8033    5.7632 H   0  0  0  0  0  0  0  0  0  0  0  0
   27.6775   15.3334    8.1119 H   0  0  0  0  0  0  0  0  0  0  0  0
   23.3379   14.7122    8.8640 H   0  0  0  0  0  0  0  0  0  0  0  0
   22.5310   15.2710   11.1712 H   0  0  0  0  0  0  0  0  0  0  0  0
   26.7493   17.3549    9.3916 H   0  0  0  0  0  0  0  0  0  0  0  0
   26.9194   17.7041   12.4318 H   0  0  0  0  0  0  0  0  0  0  0  0
   26.1557   19.1047   11.7166 H   0  0  0  0  0  0  0  0  0  0  0  0
   24.2907   18.4668   15.0332 H   0  0  0  0  0  0  0  0  0  0  0  0
   26.0435   16.8140   15.3409 H   0  0  0  0  0  0  0  0  0  0  0  0
   27.2665   17.9516   14.6827 H   0  0  0  0  0  0  0  0  0  0  0  0
   25.5351   18.3643   17.1702 H   0  0  0  0  0  0  0  0  0  0  0  0
   27.3105   18.0164   17.1200 H   0  0  0  0  0  0  0  0  0  0  0  0
   26.5431   21.6231   15.3021 H   0  0  0  0  0  0  0  0  0  0  0  0
   25.0984   11.4926    2.9285 H   0  0  0  0  0  0  0  0  0  0  0  0
  1  2  1  0
  2  3  1  0
  3  4  2  0
  4  5  1  0
  5  6  1  0
  6  7  2  0
  6  8  2  0
  6  9  1  0
  9 10  1  0
 10 11  2  0
 11 12  1  0
 12 13  2  0
 13 14  1  0
 14 15  1  0
 15 16  2  0
 16 17  1  0
 17 18  2  0
 18 19  1  0
 19 20  2  0
 19 21  1  0
 21 22  1  0
 22 23  1  0
 23 24  1  0
 24 25  1  0
 25 26  1  0
 26 27  2  0
 26 28  1  0
 28 29  1  0
 29 30  2  0
 22 31  1  0
 31 32  2  0
 14 33  2  0
  5 34  1  0
 34 35  2  0
 35  3  1  0
 33 10  1  0
 20 15  1  0
 29 23  1  0
 31 18  1  0
  1 36  1  0
  1 37  1  0
  1 38  1  0
  2 39  1  0
  2 40  1  0
  4 41  1  0
 12 42  1  0
 13 43  1  0
 16 44  1  0
 17 45  1  0
 20 46  1  0
 21 47  1  0
 21 48  1  0
 23 49  1  1
 24 50  1  0
 24 51  1  0
 25 52  1  0
 25 53  1  0
 28 54  1  0
 34 55  1  0
M  END
>  <meeko>  (165) 
{"is_sidechain": [true], "free_energy": -13.95, "intermolecular_energy": 0.0, "internal_energy": -13.95, "cluster_size": 15, "cluster_id": 1, "rank_in_cluster": 1}

>  <_RMSD_MCS_to_ref>  (165) 
0.4369155779120513

$$$$
ligand
     RDKit          3D

 56 60  0  0  0  0  0  0  0  0999 V2000
   24.8540    9.4020    7.6050 C   0  0  0  0  0  0  0  0  0  0  0  0
   25.5230   10.7550    7.4270 C   0  0  0  0  0  0  0  0  0  0  0  0
   27.0080   10.6550    7.4530 C   0  0  0  0  0  0  0  0  0  0  0  0
   27.9440   11.5870    7.0490 C   0  0  0  0  0  0  0  0  0  0  0  0
   29.1410   10.9700    7.2600 N   0  0  0  0  0  0  0  0  0  0  0  0
   30.6610   11.5120    6.7710 S   0  0  0  0  0  6  0  0  0  0  0  0
   30.4390   11.9350    5.3950 O   0  0  0  0  0  0  0  0  0  0  0  0
   31.5740   10.4180    7.0460 O   0  0  0  0  0  0  0  0  0  0  0  0
   31.1150   12.8860    7.6970 C   0  0  0  0  0  0  0  0  0  0  0  0
   32.4030   13.2730    7.7050 C   0  0  0  0  0  0  0  0  0  0  0  0
   32.6990   14.4530    8.5560 C   0  0  0  0  0  0  0  0  0  0  0  0
   31.8420   15.1120    9.2720 N   0  0  0  0  0  0  0  0  0  0  0  0
   30.5540   14.6660    9.2330 C   0  0  0  0  0  0  0  0  0  0  0  0
   29.4980   15.1410    9.8520 N   0  0  0  0  0  0  0  0  0  0  0  0
   28.4740   14.3070    9.4530 C   0  0  0  0  0  0  0  0  0  0  0  0
   27.0830   14.4940    9.9290 C   0  0  0  0  0  0  0  0  0  0  0  0
   26.1730   13.7350    9.6150 O   0  0  0  0  0  0  0  0  0  0  0  0
   26.9820   15.6050   10.7520 N   0  0  0  0  0  0  0  0  0  0  0  0
   25.8380   16.1210   11.3850 C   0  0  0  0  0  0  0  0  0  0  0  0
   24.5340   15.8800   10.9540 C   0  0  0  0  0  0  0  0  0  0  0  0
   23.4510   16.4380   11.6370 C   0  0  0  0  0  0  0  0  0  0  0  0
   23.6620   17.2380   12.7600 C   0  0  0  0  0  0  0  0  0  0  0  0
   24.9620   17.4970   13.2120 C   0  0  0  0  0  0  0  0  0  0  0  0
   25.1700   18.3420   14.4590 C   0  0  1  0  0  0  0  0  0  0  0  0
   26.2960   17.7470   15.3120 C   0  0  0  0  0  0  0  0  0  0  0  0
   26.4550   18.5520   16.5910 C   0  0  0  0  0  0  0  0  0  0  0  0
   26.7140   20.0070   16.2890 C   0  0  0  0  0  0  0  0  0  0  0  0
   27.3180   20.7410   17.0650 O   0  0  0  0  0  0  0  0  0  0  0  0
   26.1850   20.4910   15.1210 N   0  0  0  0  0  0  0  0  0  0  0  0
   25.4480   19.8170   14.1730 C   0  0  0  0  0  0  0  0  0  0  0  0
   25.0160   20.4240   13.1960 O   0  0  0  0  0  0  0  0  0  0  0  0
   26.0420   16.9240   12.5160 C   0  0  0  0  0  0  0  0  0  0  0  0
   28.8580   13.3390    8.6090 N   0  0  0  0  0  0  0  0  0  0  0  0
   30.1780   13.5590    8.4590 N   0  0  0  0  0  0  0  0  0  0  0  0
   28.9210    9.7300    7.7700 C   0  0  0  0  0  0  0  0  0  0  0  0
   27.6310    9.5070    7.9030 N   0  0  0  0  0  0  0  0  0  0  0  0
   24.7464    9.1845    8.6779 H   0  0  0  0  0  0  0  0  0  0  0  0
   23.8606    9.4192    7.1330 H   0  0  0  0  0  0  0  0  0  0  0  0
   25.4708    8.6230    7.1330 H   0  0  0  0  0  0  0  0  0  0  0  0
   25.2132   11.1791    6.4605 H   0  0  0  0  0  0  0  0  0  0  0  0
   25.2128   11.3981    8.2638 H   0  0  0  0  0  0  0  0  0  0  0  0
   27.7646   12.5958    6.6488 H   0  0  0  0  0  0  0  0  0  0  0  0
   33.1795   12.7538    7.1241 H   0  0  0  0  0  0  0  0  0  0  0  0
   33.7423   14.8006    8.5815 H   0  0  0  0  0  0  0  0  0  0  0  0
   27.8585   16.1187   10.9215 H   0  0  0  0  0  0  0  0  0  0  0  0
   24.3574   15.2473   10.0717 H   0  0  0  0  0  0  0  0  0  0  0  0
   22.4260   16.2455   11.2874 H   0  0  0  0  0  0  0  0  0  0  0  0
   22.8019   17.6682   13.2940 H   0  0  0  0  0  0  0  0  0  0  0  0
   24.2179   18.3158   15.0093 H   0  0  0  0  0  0  0  0  0  0  0  0
   26.0506   16.7049   15.5648 H   0  0  0  0  0  0  0  0  0  0  0  0
   27.2373   17.7794   14.7437 H   0  0  0  0  0  0  0  0  0  0  0  0
   25.5335   18.4671   17.1857 H   0  0  0  0  0  0  0  0  0  0  0  0
   27.3143   18.1531   17.1500 H   0  0  0  0  0  0  0  0  0  0  0  0
   26.3614   21.4871   14.9274 H   0  0  0  0  0  0  0  0  0  0  0  0
   27.0680   17.1099   12.8665 H   0  0  0  0  0  0  0  0  0  0  0  0
   29.7114    9.0123    8.0349 H   0  0  0  0  0  0  0  0  0  0  0  0
  1  2  1  0
  2  3  1  0
  3  4  2  0
  4  5  1  0
  5  6  1  0
  6  7  2  0
  6  8  2  0
  6  9  1  0
  9 10  2  0
 10 11  1  0
 11 12  2  0
 12 13  1  0
 13 14  2  0
 14 15  1  0
 15 16  1  0
 16 17  2  0
 16 18  1  0
 18 19  1  0
 19 20  2  0
 20 21  1  0
 21 22  2  0
 22 23  1  0
 23 24  1  0
 24 25  1  0
 25 26  1  0
 26 27  1  0
 27 28  2  0
 27 29  1  0
 29 30  1  0
 30 31  2  0
 23 32  2  0
 15 33  2  0
 33 34  1  0
  5 35  1  0
 35 36  2  0
 36  3  1  0
 34  9  1  0
 34 13  1  0
 32 19  1  0
 30 24  1  0
  1 37  1  0
  1 38  1  0
  1 39  1  0
  2 40  1  0
  2 41  1  0
  4 42  1  0
 10 43  1  0
 11 44  1  0
 18 45  1  0
 20 46  1  0
 21 47  1  0
 22 48  1  0
 24 49  1  1
 25 50  1  0
 25 51  1  0
 26 52  1  0
 26 53  1  0
 29 54  1  0
 32 55  1  0
 35 56  1  0
M  END
>  <meeko>  (166) 
{"is_sidechain": [true], "free_energy": -13.95, "intermolecular_energy": 0.0, "internal_energy": -13.95, "cluster_size": 16, "cluster_id": 1, "rank_in_cluster": 1}

>  <_RMSD_MCS_to_ref>  (166) 
0.4381650659283544

$$$$
ligand
     RDKit          3D

 66 71  0  0  0  0  0  0  0  0999 V2000
   24.8710    9.6160    7.7820 C   0  0  0  0  0  0  0  0  0  0  0  0
   25.4240   10.9650    7.3490 C   0  0  0  0  0  0  0  0  0  0  0  0
   26.8420   11.1420    7.7640 C   0  0  0  0  0  0  0  0  0  0  0  0
   27.3440   11.6730    8.9370 C   0  0  0  0  0  0  0  0  0  0  0  0
   28.6990   11.6370    8.7680 N   0  0  0  0  0  0  0  0  0  0  0  0
   29.8350   12.3950    9.7640 S   0  0  0  0  0  6  0  0  0  0  0  0
   31.1210   12.1190    9.1490 O   0  0  0  0  0  0  0  0  0  0  0  0
   29.5130   11.9010   11.0900 O   0  0  0  0  0  0  0  0  0  0  0  0
   29.5730   14.0110    9.7530 O   0  0  0  0  0  0  0  0  0  0  0  0
   28.4740   14.5270    9.1180 C   0  0  0  0  0  0  0  0  0  0  0  0
   27.2910   14.7590    9.8260 C   0  0  0  0  0  0  0  0  0  0  0  0
   26.1920   15.3510    9.1920 C   0  0  0  0  0  0  0  0  0  0  0  0
   24.9660   15.6480    9.9330 C   0  0  0  0  0  0  0  0  0  0  0  0
   23.6990   15.3410    9.4020 C   0  0  0  0  0  0  0  0  0  0  0  0
   22.5130   15.6470   10.1000 C   0  0  0  0  0  0  0  0  0  0  0  0
   22.5640   16.2640   11.3480 C   0  0  0  0  0  0  0  0  0  0  0  0
   23.8130   16.5510   11.8620 C   0  0  0  0  0  0  0  0  0  0  0  0
   24.9960   16.2550   11.1830 C   0  0  0  0  0  0  0  0  0  0  0  0
   26.1650   16.6940   12.0020 C   0  0  0  0  0  0  0  0  0  0  0  0
   25.5440   17.1620   13.2310 N   0  0  0  0  0  0  0  0  0  0  0  0
   26.3290   17.8430   14.2540 C   0  0  2  0  0  0  0  0  0  0  0  0
   25.7550   17.7080   15.6640 C   0  0  0  0  0  0  0  0  0  0  0  0
   26.6860   18.3920   16.6520 C   0  0  0  0  0  0  0  0  0  0  0  0
   26.9050   19.8420   16.2830 C   0  0  0  0  0  0  0  0  0  0  0  0
   27.2560   20.6800   17.1070 O   0  0  0  0  0  0  0  0  0  0  0  0
   26.7740   20.1680   14.9570 N   0  0  0  0  0  0  0  0  0  0  0  0
   26.5430   19.3210   13.8970 C   0  0  0  0  0  0  0  0  0  0  0  0
   26.6160   19.7400   12.7420 O   0  0  0  0  0  0  0  0  0  0  0  0
   24.1620   17.1830   13.1390 C   0  0  0  0  0  0  0  0  0  0  0  0
   23.3570   17.6330   13.9300 O   0  0  0  0  0  0  0  0  0  0  0  0
   26.2960   15.6770    7.8320 C   0  0  0  0  0  0  0  0  0  0  0  0
   27.4680   15.4100    7.1080 C   0  0  0  0  0  0  0  0  0  0  0  0
   28.5620   14.7970    7.7450 C   0  0  0  0  0  0  0  0  0  0  0  0
   29.8290   14.4950    6.9720 C   0  0  0  0  0  0  0  0  0  0  0  0
   29.6620   14.5140    5.5150 N   0  0  0  0  0  0  0  0  0  0  0  0
   28.9570   15.7240    5.0940 C   0  0  0  0  0  0  0  0  0  0  0  0
   27.5240   15.7260    5.6340 C   0  0  0  0  0  0  0  0  0  0  0  0
   28.9820   11.0950    7.5560 C   0  0  0  0  0  0  0  0  0  0  0  0
   27.8720   10.7790    6.9180 N   0  0  0  0  0  0  0  0  0  0  0  0
   24.8497    9.5640    8.8806 H   0  0  0  0  0  0  0  0  0  0  0  0
   23.8507    9.4948    7.3893 H   0  0  0  0  0  0  0  0  0  0  0  0
   25.5127    8.8135    7.3893 H   0  0  0  0  0  0  0  0  0  0  0  0
   25.3621   11.0397    6.2533 H   0  0  0  0  0  0  0  0  0  0  0  0
   24.8260   11.7505    7.8342 H   0  0  0  0  0  0  0  0  0  0  0  0
   26.7811   12.0406    9.8077 H   0  0  0  0  0  0  0  0  0  0  0  0
   27.2233   14.4750   10.8865 H   0  0  0  0  0  0  0  0  0  0  0  0
   23.6328   14.8509    8.4195 H   0  0  0  0  0  0  0  0  0  0  0  0
   21.5386   15.3964    9.6553 H   0  0  0  0  0  0  0  0  0  0  0  0
   21.6464   16.5125   11.9015 H   0  0  0  0  0  0  0  0  0  0  0  0
   26.8480   15.8544   12.1986 H   0  0  0  0  0  0  0  0  0  0  0  0
   26.7789   17.4606   11.5065 H   0  0  0  0  0  0  0  0  0  0  0  0
   27.3025   17.3311   14.2684 H   0  0  0  0  0  0  0  0  0  0  0  0
   24.7634   18.1825   15.7042 H   0  0  0  0  0  0  0  0  0  0  0  0
   25.6599   16.6432   15.9232 H   0  0  0  0  0  0  0  0  0  0  0  0
   26.2427   18.3406   17.6574 H   0  0  0  0  0  0  0  0  0  0  0  0
   27.6574   17.8763   16.6297 H   0  0  0  0  0  0  0  0  0  0  0  0
   26.8588   21.1683   14.7266 H   0  0  0  0  0  0  0  0  0  0  0  0
   25.4433   16.1506    7.3235 H   0  0  0  0  0  0  0  0  0  0  0  0
   30.5857   15.2461    7.2425 H   0  0  0  0  0  0  0  0  0  0  0  0
   30.1289   13.4720    7.2430 H   0  0  0  0  0  0  0  0  0  0  0  0
   30.5894   14.4895    5.0675 H   0  0  0  0  0  0  0  0  0  0  0  0
   29.4900   16.6058    5.4790 H   0  0  0  0  0  0  0  0  0  0  0  0
   28.9227   15.7512    3.9949 H   0  0  0  0  0  0  0  0  0  0  0  0
   27.0848   16.7208    5.4684 H   0  0  0  0  0  0  0  0  0  0  0  0
   26.9619   14.9453    5.1005 H   0  0  0  0  0  0  0  0  0  0  0  0
   29.9969   10.9407    7.1607 H   0  0  0  0  0  0  0  0  0  0  0  0
  1  2  1  0
  2  3  1  0
  3  4  2  0
  4  5  1  0
  5  6  1  0
  6  7  2  0
  6  8  2  0
  6  9  1  0
  9 10  1  0
 10 11  2  0
 11 12  1  0
 12 13  1  0
 13 14  2  0
 14 15  1  0
 15 16  2  0
 16 17  1  0
 17 18  2  0
 18 19  1  0
 19 20  1  0
 20 21  1  0
 21 22  1  0
 22 23  1  0
 23 24  1  0
 24 25  2  0
 24 26  1  0
 26 27  1  0
 27 28  2  0
 20 29  1  0
 29 30  2  0
 12 31  2  0
 31 32  1  0
 32 33  2  0
 33 34  1  0
 34 35  1  0
 35 36  1  0
 36 37  1  0
  5 38  1  0
 38 39  2  0
 39  3  1  0
 33 10  1  0
 18 13  1  0
 27 21  1  0
 37 32  1  0
 29 17  1  0
  1 40  1  0
  1 41  1  0
  1 42  1  0
  2 43  1  0
  2 44  1  0
  4 45  1  0
 11 46  1  0
 14 47  1  0
 15 48  1  0
 16 49  1  0
 19 50  1  0
 19 51  1  0
 21 52  1  1
 22 53  1  0
 22 54  1  0
 23 55  1  0
 23 56  1  0
 26 57  1  0
 31 58  1  0
 34 59  1  0
 34 60  1  0
 35 61  1  0
 36 62  1  0
 36 63  1  0
 37 64  1  0
 37 65  1  0
 38 66  1  0
M  END
>  <meeko>  (167) 
{"is_sidechain": [true], "free_energy": -13.95, "intermolecular_energy": 0.0, "internal_energy": -13.95, "cluster_size": 14, "cluster_id": 1, "rank_in_cluster": 1}

>  <_RMSD_MCS_to_ref>  (167) 
1.2189527381230894

$$$$
ligand
     RDKit          3D

 62 67  0  0  0  0  0  0  0  0999 V2000
   24.8540    9.4020    7.6050 C   0  0  0  0  0  0  0  0  0  0  0  0
   25.5230   10.7550    7.4270 C   0  0  0  0  0  0  0  0  0  0  0  0
   25.5650   11.1790    6.0010 C   0  0  0  0  0  0  0  0  0  0  0  0
   26.5460   11.8900    5.3370 C   0  0  0  0  0  0  0  0  0  0  0  0
   26.0720   11.9950    4.0600 N   0  0  0  0  0  0  0  0  0  0  0  0
   26.8450   12.7810    2.7840 S   0  0  0  0  0  6  0  0  0  0  0  0
   25.9870   12.6130    1.6240 O   0  0  0  0  0  0  0  0  0  0  0  0
   28.1800   12.2030    2.7920 O   0  0  0  0  0  0  0  0  0  0  0  0
   27.0060   14.3640    3.1250 O   0  0  0  0  0  0  0  0  0  0  0  0
   26.7300   14.8170    4.3880 C   0  0  0  0  0  0  0  0  0  0  0  0
   27.6680   15.6370    4.9880 C   0  0  0  0  0  0  0  0  0  0  0  0
   27.4230   16.0640    6.2880 C   0  0  0  0  0  0  0  0  0  0  0  0
   26.2620   15.6460    6.9510 C   0  0  0  0  0  0  0  0  0  0  0  0
   25.9720   16.0480    8.2690 C   0  0  0  0  0  0  0  0  0  0  0  0
   24.8080   15.6160    8.9240 C   0  0  0  0  0  0  0  0  0  0  0  0
   24.5080   16.0380   10.3030 C   0  0  0  0  0  0  0  0  0  0  0  0
   23.2680   15.7080   10.9090 C   0  0  0  0  0  0  0  0  0  0  0  0
   22.9490   16.1020   12.2170 C   0  0  0  0  0  0  0  0  0  0  0  0
   23.8860   16.8280   12.9220 C   0  0  0  0  0  0  0  0  0  0  0  0
   25.1050   17.1530   12.3350 C   0  0  0  0  0  0  0  0  0  0  0  0
   25.4400   16.7810   11.0450 C   0  0  0  0  0  0  0  0  0  0  0  0
   25.8880   17.9270   13.3030 C   0  0  0  0  0  0  0  0  0  0  0  0
   26.9670   18.4350   13.0690 O   0  0  0  0  0  0  0  0  0  0  0  0
   25.1490   17.9650   14.4760 N   0  0  0  0  0  0  0  0  0  0  0  0
   25.4610   18.8230   15.6150 C   0  0  1  0  0  0  0  0  0  0  0  0
   26.5010   18.2300   16.5650 C   0  0  0  0  0  0  0  0  0  0  0  0
   26.7040   19.1720   17.7420 C   0  0  0  0  0  0  0  0  0  0  0  0
   27.1090   20.5520   17.2760 C   0  0  0  0  0  0  0  0  0  0  0  0
   27.7170   21.3340   17.9990 O   0  0  0  0  0  0  0  0  0  0  0  0
   26.6900   20.9270   16.0240 N   0  0  0  0  0  0  0  0  0  0  0  0
   25.8870   20.2260   15.1540 C   0  0  0  0  0  0  0  0  0  0  0  0
   25.4670   20.7600   14.1280 O   0  0  0  0  0  0  0  0  0  0  0  0
   23.8210   17.3950   14.3000 C   0  0  0  0  0  0  0  0  0  0  0  0
   23.9440   14.7670    8.2220 C   0  0  0  0  0  0  0  0  0  0  0  0
   24.2330   14.3690    6.9110 C   0  0  0  0  0  0  0  0  0  0  0  0
   25.3780   14.7960    6.2570 C   0  0  0  0  0  0  0  0  0  0  0  0
   25.6120   14.3880    4.9980 N   0  0  0  0  0  0  0  0  0  0  0  0
   24.8700   11.3690    3.9740 C   0  0  0  0  0  0  0  0  0  0  0  0
   24.5300   10.8620    5.1430 N   0  0  0  0  0  0  0  0  0  0  0  0
   24.7464    9.1845    8.6779 H   0  0  0  0  0  0  0  0  0  0  0  0
   23.8606    9.4192    7.1330 H   0  0  0  0  0  0  0  0  0  0  0  0
   25.4708    8.6230    7.1330 H   0  0  0  0  0  0  0  0  0  0  0  0
   24.9624   11.5058    8.0033 H   0  0  0  0  0  0  0  0  0  0  0  0
   26.5599   10.6682    7.7838 H   0  0  0  0  0  0  0  0  0  0  0  0
   27.4906   12.2812    5.7428 H   0  0  0  0  0  0  0  0  0  0  0  0
   28.5796   15.9419    4.4532 H   0  0  0  0  0  0  0  0  0  0  0  0
   28.1387   16.7282    6.7946 H   0  0  0  0  0  0  0  0  0  0  0  0
   26.6715   16.7138    8.7958 H   0  0  0  0  0  0  0  0  0  0  0  0
   22.5334   15.1245   10.3347 H   0  0  0  0  0  0  0  0  0  0  0  0
   21.9802   15.8397   12.6670 H   0  0  0  0  0  0  0  0  0  0  0  0
   26.4118   17.0603   10.6119 H   0  0  0  0  0  0  0  0  0  0  0  0
   24.5271   18.9021   16.1908 H   0  0  0  0  0  0  0  0  0  0  0  0
   26.1492   17.2545   16.9319 H   0  0  0  0  0  0  0  0  0  0  0  0
   27.4537   18.0976   16.0312 H   0  0  0  0  0  0  0  0  0  0  0  0
   25.7638   19.2463   18.3081 H   0  0  0  0  0  0  0  0  0  0  0  0
   27.5080   18.7689   18.3753 H   0  0  0  0  0  0  0  0  0  0  0  0
   27.0170   21.8467   15.6951 H   0  0  0  0  0  0  0  0  0  0  0  0
   23.6256   16.6083   15.0436 H   0  0  0  0  0  0  0  0  0  0  0  0
   23.0111   18.1276   14.4322 H   0  0  0  0  0  0  0  0  0  0  0  0
   23.0247   14.4074    8.7074 H   0  0  0  0  0  0  0  0  0  0  0  0
   23.5338   13.7007    6.3870 H   0  0  0  0  0  0  0  0  0  0  0  0
   24.2651   11.2952    3.0582 H   0  0  0  0  0  0  0  0  0  0  0  0
  1  2  1  0
  2  3  1  0
  3  4  2  0
  4  5  1  0
  5  6  1  0
  6  7  2  0
  6  8  2  0
  6  9  1  0
  9 10  1  0
 10 11  2  0
 11 12  1  0
 12 13  2  0
 13 14  1  0
 14 15  2  0
 15 16  1  0
 16 17  2  0
 17 18  1  0
 18 19  2  0
 19 20  1  0
 20 21  2  0
 20 22  1  0
 22 23  2  0
 22 24  1  0
 24 25  1  0
 25 26  1  0
 26 27  1  0
 27 28  1  0
 28 29  2  0
 28 30  1  0
 30 31  1  0
 31 32  2  0
 24 33  1  0
 15 34  1  0
 34 35  2  0
 35 36  1  0
 36 37  2  0
  5 38  1  0
 38 39  2  0
 39  3  1  0
 37 10  1  0
 36 13  1  0
 21 16  1  0
 31 25  1  0
 33 19  1  0
  1 40  1  0
  1 41  1  0
  1 42  1  0
  2 43  1  0
  2 44  1  0
  4 45  1  0
 11 46  1  0
 12 47  1  0
 14 48  1  0
 17 49  1  0
 18 50  1  0
 21 51  1  0
 25 52  1  1
 26 53  1  0
 26 54  1  0
 27 55  1  0
 27 56  1  0
 30 57  1  0
 33 58  1  0
 33 59  1  0
 34 60  1  0
 35 61  1  0
 38 62  1  0
M  END
>  <meeko>  (168) 
{"is_sidechain": [true], "free_energy": -13.94, "intermolecular_energy": 0.0, "internal_energy": -13.94, "cluster_size": 20, "cluster_id": 1, "rank_in_cluster": 1}

>  <_RMSD_MCS_to_ref>  (168) 
1.1307325059447082

$$$$
ligand
     RDKit          3D

 60 65  0  0  0  0  0  0  0  0999 V2000
   24.8710    9.6160    7.7820 C   0  0  0  0  0  0  0  0  0  0  0  0
   25.4240   10.9650    7.3490 C   0  0  0  0  0  0  0  0  0  0  0  0
   26.9120   10.9790    7.3180 C   0  0  0  0  0  0  0  0  0  0  0  0
   27.7560   11.7970    6.5930 C   0  0  0  0  0  0  0  0  0  0  0  0
   29.0080   11.3730    6.9350 N   0  0  0  0  0  0  0  0  0  0  0  0
   30.4610   12.1490    6.5660 S   0  0  0  0  0  6  0  0  0  0  0  0
   30.5090   12.2190    5.1150 O   0  0  0  0  0  0  0  0  0  0  0  0
   31.4640   11.4130    7.3120 O   0  0  0  0  0  0  0  0  0  0  0  0
   30.3970   13.6690    7.1640 O   0  0  0  0  0  0  0  0  0  0  0  0
   29.1920   14.3400    7.2170 C   0  0  0  0  0  0  0  0  0  0  0  0
   28.8140   15.0640    6.0830 C   0  0  0  0  0  0  0  0  0  0  0  0
   27.6150   15.7730    6.0590 C   0  0  0  0  0  0  0  0  0  0  0  0
   26.7530   15.7560    7.1620 C   0  0  0  0  0  0  0  0  0  0  0  0
   27.0960   14.9950    8.3000 C   0  0  0  0  0  0  0  0  0  0  0  0
   26.5090   14.7280    9.5780 C   0  0  0  0  0  0  0  0  0  0  0  0
   25.2380   15.2120   10.1090 C   0  0  0  0  0  0  0  0  0  0  0  0
   24.0290   14.9780    9.4280 C   0  0  0  0  0  0  0  0  0  0  0  0
   22.8030   15.4750    9.9150 C   0  0  0  0  0  0  0  0  0  0  0  0
   22.7580   16.2140   11.0950 C   0  0  0  0  0  0  0  0  0  0  0  0
   23.9530   16.4160   11.7610 C   0  0  0  0  0  0  0  0  0  0  0  0
   25.1740   15.9260   11.3000 C   0  0  0  0  0  0  0  0  0  0  0  0
   26.2630   16.3280   12.2380 C   0  0  0  0  0  0  0  0  0  0  0  0
   25.5400   17.0260   13.2950 N   0  0  0  0  0  0  0  0  0  0  0  0
   26.2480   17.7860   14.3200 C   0  0  2  0  0  0  0  0  0  0  0  0
   25.6140   17.6900   15.7070 C   0  0  0  0  0  0  0  0  0  0  0  0
   26.4630   18.4630   16.7030 C   0  0  0  0  0  0  0  0  0  0  0  0
   26.6330   19.9020   16.2760 C   0  0  0  0  0  0  0  0  0  0  0  0
   26.9010   20.7940   17.0760 O   0  0  0  0  0  0  0  0  0  0  0  0
   26.5580   20.1590   14.9300 N   0  0  0  0  0  0  0  0  0  0  0  0
   26.4160   19.2550   13.9030 C   0  0  0  0  0  0  0  0  0  0  0  0
   26.5300   19.6230   12.7340 O   0  0  0  0  0  0  0  0  0  0  0  0
   24.1940   17.1650   12.9990 C   0  0  0  0  0  0  0  0  0  0  0  0
   23.3460   17.7930   13.6020 O   0  0  0  0  0  0  0  0  0  0  0  0
   27.3130   13.9520   10.3200 N   0  0  0  0  0  0  0  0  0  0  0  0
   28.3530   13.6810    9.5190 N   0  0  0  0  0  0  0  0  0  0  0  0
   28.3060   14.3060    8.3020 C   0  0  0  0  0  0  0  0  0  0  0  0
   28.9060   10.3830    7.8590 C   0  0  0  0  0  0  0  0  0  0  0  0
   27.6420   10.1070    8.1020 N   0  0  0  0  0  0  0  0  0  0  0  0
   24.8497    9.5640    8.8806 H   0  0  0  0  0  0  0  0  0  0  0  0
   23.8507    9.4948    7.3893 H   0  0  0  0  0  0  0  0  0  0  0  0
   25.5127    8.8135    7.3893 H   0  0  0  0  0  0  0  0  0  0  0  0
   25.0465   11.1959    6.3419 H   0  0  0  0  0  0  0  0  0  0  0  0
   25.0945   11.7161    8.0820 H   0  0  0  0  0  0  0  0  0  0  0  0
   27.4823   12.6052    5.8988 H   0  0  0  0  0  0  0  0  0  0  0  0
   29.4700   15.0742    5.2001 H   0  0  0  0  0  0  0  0  0  0  0  0
   27.3428   16.3521    5.1643 H   0  0  0  0  0  0  0  0  0  0  0  0
   25.8157   16.3313    7.1418 H   0  0  0  0  0  0  0  0  0  0  0  0
   24.0408   14.3947    8.4955 H   0  0  0  0  0  0  0  0  0  0  0  0
   21.8746   15.2777    9.3589 H   0  0  0  0  0  0  0  0  0  0  0  0
   21.8113   16.6200   11.4810 H   0  0  0  0  0  0  0  0  0  0  0  0
   26.7899   15.4472   12.6337 H   0  0  0  0  0  0  0  0  0  0  0  0
   27.0406   16.9442   11.7630 H   0  0  0  0  0  0  0  0  0  0  0  0
   27.2402   17.3185   14.4030 H   0  0  0  0  0  0  0  0  0  0  0  0
   24.6009   18.1176   15.6782 H   0  0  0  0  0  0  0  0  0  0  0  0
   25.5563   16.6350   16.0132 H   0  0  0  0  0  0  0  0  0  0  0  0
   25.9738   18.4365   17.6879 H   0  0  0  0  0  0  0  0  0  0  0  0
   27.4570   17.9943   16.7505 H   0  0  0  0  0  0  0  0  0  0  0  0
   26.6150   21.1500   14.6552 H   0  0  0  0  0  0  0  0  0  0  0  0
   29.1228   13.0551    9.7959 H   0  0  0  0  0  0  0  0  0  0  0  0
   29.7603    9.8818    8.3375 H   0  0  0  0  0  0  0  0  0  0  0  0
  1  2  1  0
  2  3  1  0
  3  4  2  0
  4  5  1  0
  5  6  1  0
  6  7  2  0
  6  8  2  0
  6  9  1  0
  9 10  1  0
 10 11  2  0
 11 12  1  0
 12 13  2  0
 13 14  1  0
 14 15  1  0
 15 16  1  0
 16 17  2  0
 17 18  1  0
 18 19  2  0
 19 20  1  0
 20 21  2  0
 21 22  1  0
 22 23  1  0
 23 24  1  0
 24 25  1  0
 25 26  1  0
 26 27  1  0
 27 28  2  0
 27 29  1  0
 29 30  1  0
 30 31  2  0
 23 32  1  0
 32 33  2  0
 15 34  2  0
 34 35  1  0
 35 36  1  0
  5 37  1  0
 37 38  2  0
 38  3  1  0
 36 10  1  0
 36 14  2  0
 21 16  1  0
 30 24  1  0
 32 20  1  0
  1 39  1  0
  1 40  1  0
  1 41  1  0
  2 42  1  0
  2 43  1  0
  4 44  1  0
 11 45  1  0
 12 46  1  0
 13 47  1  0
 17 48  1  0
 18 49  1  0
 19 50  1  0
 22 51  1  0
 22 52  1  0
 24 53  1  1
 25 54  1  0
 25 55  1  0
 26 56  1  0
 26 57  1  0
 29 58  1  0
 35 59  1  0
 37 60  1  0
M  END
>  <meeko>  (169) 
{"is_sidechain": [true], "free_energy": -13.94, "intermolecular_energy": 0.0, "internal_energy": -13.94, "cluster_size": 16, "cluster_id": 1, "rank_in_cluster": 1}

>  <_RMSD_MCS_to_ref>  (169) 
1.1862126003939315

$$$$
ligand
     RDKit          3D

 56 60  0  0  0  0  0  0  0  0999 V2000
   24.8540    9.4020    7.6050 C   0  0  0  0  0  0  0  0  0  0  0  0
   25.5230   10.7550    7.4270 C   0  0  0  0  0  0  0  0  0  0  0  0
   25.1370   11.4130    6.1490 C   0  0  0  0  0  0  0  0  0  0  0  0
   24.4420   12.5910    5.9620 C   0  0  0  0  0  0  0  0  0  0  0  0
   24.3620   12.7220    4.6050 N   0  0  0  0  0  0  0  0  0  0  0  0
   23.6270   13.9760    3.7500 S   0  0  0  0  0  6  0  0  0  0  0  0
   22.2110   13.7870    4.0190 O   0  0  0  0  0  0  0  0  0  0  0  0
   24.1340   13.8810    2.3920 O   0  0  0  0  0  0  0  0  0  0  0  0
   24.0520   15.4160    4.3790 O   0  0  0  0  0  0  0  0  0  0  0  0
   25.0430   15.4350    5.3190 C   0  0  0  0  0  0  0  0  0  0  0  0
   26.3530   15.2880    4.9080 C   0  0  0  0  0  0  0  0  0  0  0  0
   27.3480   15.3640    5.8740 C   0  0  0  0  0  0  0  0  0  0  0  0
   26.9970   15.5980    7.2030 C   0  0  0  0  0  0  0  0  0  0  0  0
   25.6520   15.7590    7.5300 C   0  0  0  0  0  0  0  0  0  0  0  0
   25.1750   16.0250    8.9010 C   0  0  0  0  0  0  0  0  0  0  0  0
   23.9990   15.4180    9.4150 C   0  0  0  0  0  0  0  0  0  0  0  0
   23.5320   15.6950   10.7050 C   0  0  0  0  0  0  0  0  0  0  0  0
   24.2580   16.5880   11.4680 C   0  0  0  0  0  0  0  0  0  0  0  0
   25.4160   17.1970   11.0030 C   0  0  0  0  0  0  0  0  0  0  0  0
   25.8830   16.9250    9.7280 C   0  0  0  0  0  0  0  0  0  0  0  0
   25.9840   18.0900   12.0510 C   0  0  0  0  0  0  0  0  0  0  0  0
   24.9750   18.0260   13.1010 N   0  0  0  0  0  0  0  0  0  0  0  0
   25.2170   18.6010   14.4180 C   0  0  1  0  0  0  0  0  0  0  0  0
   26.2890   17.8670   15.2220 C   0  0  0  0  0  0  0  0  0  0  0  0
   26.4170   18.5070   16.5940 C   0  0  0  0  0  0  0  0  0  0  0  0
   26.7300   19.9820   16.4840 C   0  0  0  0  0  0  0  0  0  0  0  0
   27.2830   20.6030   17.3870 O   0  0  0  0  0  0  0  0  0  0  0  0
   26.2890   20.6220   15.3540 N   0  0  0  0  0  0  0  0  0  0  0  0
   25.5470   20.0990   14.3180 C   0  0  0  0  0  0  0  0  0  0  0  0
   25.1060   20.8370   13.4380 O   0  0  0  0  0  0  0  0  0  0  0  0
   24.0030   17.0750   12.8270 C   0  0  0  0  0  0  0  0  0  0  0  0
   23.1050   16.6800   13.5450 O   0  0  0  0  0  0  0  0  0  0  0  0
   24.6780   15.6900    6.5870 N   0  0  0  0  0  0  0  0  0  0  0  0
   24.9890   11.6690    4.0180 C   0  0  0  0  0  0  0  0  0  0  0  0
   25.4650   10.8440    4.9300 N   0  0  0  0  0  0  0  0  0  0  0  0
   24.7464    9.1845    8.6779 H   0  0  0  0  0  0  0  0  0  0  0  0
   23.8606    9.4192    7.1330 H   0  0  0  0  0  0  0  0  0  0  0  0
   25.4708    8.6230    7.1330 H   0  0  0  0  0  0  0  0  0  0  0  0
   25.2300   11.4071    8.2630 H   0  0  0  0  0  0  0  0  0  0  0  0
   26.6107   10.5921    7.4062 H   0  0  0  0  0  0  0  0  0  0  0  0
   24.0435   13.2694    6.7307 H   0  0  0  0  0  0  0  0  0  0  0  0
   26.6005   15.1163    3.8500 H   0  0  0  0  0  0  0  0  0  0  0  0
   28.4043   15.2406    5.5929 H   0  0  0  0  0  0  0  0  0  0  0  0
   27.7711   15.6547    7.9825 H   0  0  0  0  0  0  0  0  0  0  0  0
   23.4405   14.7118    8.7831 H   0  0  0  0  0  0  0  0  0  0  0  0
   22.6207   15.2191   11.0964 H   0  0  0  0  0  0  0  0  0  0  0  0
   26.8009   17.4075    9.3610 H   0  0  0  0  0  0  0  0  0  0  0  0
   26.9544   17.7157   12.4089 H   0  0  0  0  0  0  0  0  0  0  0  0
   26.1828   19.1119   11.6956 H   0  0  0  0  0  0  0  0  0  0  0  0
   24.2757   18.4761   14.9733 H   0  0  0  0  0  0  0  0  0  0  0  0
   26.0041   16.8106   15.3349 H   0  0  0  0  0  0  0  0  0  0  0  0
   27.2524   17.9316   14.6950 H   0  0  0  0  0  0  0  0  0  0  0  0
   25.4693   18.3812   17.1381 H   0  0  0  0  0  0  0  0  0  0  0  0
   27.2417   18.0158   17.1311 H   0  0  0  0  0  0  0  0  0  0  0  0
   26.5441   21.6163   15.2696 H   0  0  0  0  0  0  0  0  0  0  0  0
   25.0861   11.5247    2.9318 H   0  0  0  0  0  0  0  0  0  0  0  0
  1  2  1  0
  2  3  1  0
  3  4  2  0
  4  5  1  0
  5  6  1  0
  6  7  2  0
  6  8  2  0
  6  9  1  0
  9 10  1  0
 10 11  2  0
 11 12  1  0
 12 13  2  0
 13 14  1  0
 14 15  1  0
 15 16  2  0
 16 17  1  0
 17 18  2  0
 18 19  1  0
 19 20  2  0
 19 21  1  0
 21 22  1  0
 22 23  1  0
 23 24  1  0
 24 25  1  0
 25 26  1  0
 26 27  2  0
 26 28  1  0
 28 29  1  0
 29 30  2  0
 22 31  1  0
 31 32  2  0
 14 33  2  0
  5 34  1  0
 34 35  2  0
 35  3  1  0
 33 10  1  0
 20 15  1  0
 29 23  1  0
 31 18  1  0
  1 36  1  0
  1 37  1  0
  1 38  1  0
  2 39  1  0
  2 40  1  0
  4 41  1  0
 11 42  1  0
 12 43  1  0
 13 44  1  0
 16 45  1  0
 17 46  1  0
 20 47  1  0
 21 48  1  0
 21 49  1  0
 23 50  1  1
 24 51  1  0
 24 52  1  0
 25 53  1  0
 25 54  1  0
 28 55  1  0
 34 56  1  0
M  END
>  <meeko>  (170) 
{"is_sidechain": [true], "free_energy": -13.93, "intermolecular_energy": 0.0, "internal_energy": -13.93, "cluster_size": 14, "cluster_id": 1, "rank_in_cluster": 1}

>  <_RMSD_MCS_to_ref>  (170) 
0.4529797640807659

$$$$
ligand
     RDKit          3D

 60 64  0  0  0  0  0  0  0  0999 V2000
   24.8540    9.4020    7.6050 C   0  0  0  0  0  0  0  0  0  0  0  0
   25.5230   10.7550    7.4270 C   0  0  0  0  0  0  0  0  0  0  0  0
   25.2180   11.3640    6.1050 C   0  0  0  0  0  0  0  0  0  0  0  0
   25.9360   12.3050    5.3950 C   0  0  0  0  0  0  0  0  0  0  0  0
   25.2120   12.4860    4.2510 N   0  0  0  0  0  0  0  0  0  0  0  0
   25.5090   13.6550    3.0790 S   0  0  0  0  0  6  0  0  0  0  0  0
   24.4730   13.5010    2.0780 O   0  0  0  0  0  0  0  0  0  0  0  0
   26.9190   13.5250    2.7600 O   0  0  0  0  0  0  0  0  0  0  0  0
   25.2560   15.1890    3.9290 C   0  0  0  0  0  0  0  0  0  0  0  0
   25.3030   16.3900    3.2200 C   0  0  0  0  0  0  0  0  0  0  0  0
   25.1050   17.5880    3.9010 C   0  0  0  0  0  0  0  0  0  0  0  0
   24.8620   17.5770    5.2780 C   0  0  0  0  0  0  0  0  0  0  0  0
   24.8050   16.3720    5.9910 C   0  0  0  0  0  0  0  0  0  0  0  0
   24.5600   16.4560    7.3780 N   0  0  0  0  0  0  0  0  0  0  0  0
   24.5460   15.4150    8.2900 C   0  0  0  0  0  0  0  0  0  0  0  0
   24.6950   14.2240    8.0420 O   0  0  0  0  0  0  0  0  0  0  0  0
   24.2930   15.8100    9.7050 C   0  0  0  0  0  0  0  0  0  0  0  0
   23.0960   15.3700   10.3160 C   0  0  0  0  0  0  0  0  0  0  0  0
   22.7910   15.7020   11.6420 C   0  0  0  0  0  0  0  0  0  0  0  0
   23.7050   16.4650   12.3460 C   0  0  0  0  0  0  0  0  0  0  0  0
   24.8890   16.8780   11.7380 C   0  0  0  0  0  0  0  0  0  0  0  0
   25.2170   16.5700   10.4310 C   0  0  0  0  0  0  0  0  0  0  0  0
   25.6530   17.6610   12.7120 C   0  0  0  0  0  0  0  0  0  0  0  0
   26.6930   18.2380   12.4610 O   0  0  0  0  0  0  0  0  0  0  0  0
   24.9460   17.6210   13.9040 N   0  0  0  0  0  0  0  0  0  0  0  0
   25.2380   18.4610   15.0610 C   0  0  1  0  0  0  0  0  0  0  0  0
   26.2950   17.8750   15.9960 C   0  0  0  0  0  0  0  0  0  0  0  0
   26.4770   18.7970   17.1920 C   0  0  0  0  0  0  0  0  0  0  0  0
   26.8470   20.1940   16.7540 C   0  0  0  0  0  0  0  0  0  0  0  0
   27.4490   20.9720   17.4900 O   0  0  0  0  0  0  0  0  0  0  0  0
   26.4050   20.5910   15.5170 N   0  0  0  0  0  0  0  0  0  0  0  0
   25.6330   19.8820   14.6270 C   0  0  0  0  0  0  0  0  0  0  0  0
   25.2170   20.4170   13.5990 O   0  0  0  0  0  0  0  0  0  0  0  0
   23.6470   16.9800   13.7450 C   0  0  0  0  0  0  0  0  0  0  0  0
   24.9980   15.1720    5.3050 C   0  0  0  0  0  0  0  0  0  0  0  0
   24.0910   11.7230    4.3070 C   0  0  0  0  0  0  0  0  0  0  0  0
   24.0710   11.0150    5.4180 N   0  0  0  0  0  0  0  0  0  0  0  0
   24.7464    9.1845    8.6779 H   0  0  0  0  0  0  0  0  0  0  0  0
   23.8606    9.4192    7.1330 H   0  0  0  0  0  0  0  0  0  0  0  0
   25.4708    8.6230    7.1330 H   0  0  0  0  0  0  0  0  0  0  0  0
   25.1692   11.4318    8.2187 H   0  0  0  0  0  0  0  0  0  0  0  0
   26.6110   10.6036    7.4856 H   0  0  0  0  0  0  0  0  0  0  0  0
   26.8764   12.7968    5.6844 H   0  0  0  0  0  0  0  0  0  0  0  0
   25.4941   16.3901    2.1367 H   0  0  0  0  0  0  0  0  0  0  0  0
   25.1397   18.5429    3.3560 H   0  0  0  0  0  0  0  0  0  0  0  0
   24.7134   18.5285    5.8095 H   0  0  0  0  0  0  0  0  0  0  0  0
   24.3706   17.3963    7.7534 H   0  0  0  0  0  0  0  0  0  0  0  0
   22.3904   14.7548    9.7384 H   0  0  0  0  0  0  0  0  0  0  0  0
   21.8534   15.3663   12.1092 H   0  0  0  0  0  0  0  0  0  0  0  0
   26.1625   16.9074    9.9814 H   0  0  0  0  0  0  0  0  0  0  0  0
   24.3034   18.5045   15.6394 H   0  0  0  0  0  0  0  0  0  0  0  0
   25.9691   16.8834   16.3431 H   0  0  0  0  0  0  0  0  0  0  0  0
   27.2493   17.7781   15.4576 H   0  0  0  0  0  0  0  0  0  0  0  0
   25.5363   18.8367   17.7607 H   0  0  0  0  0  0  0  0  0  0  0  0
   27.2915   18.4007   17.8162 H   0  0  0  0  0  0  0  0  0  0  0  0
   26.6860   21.5359   15.2186 H   0  0  0  0  0  0  0  0  0  0  0  0
   23.5192   16.1584   14.4652 H   0  0  0  0  0  0  0  0  0  0  0  0
   22.8002   17.6584   13.9259 H   0  0  0  0  0  0  0  0  0  0  0  0
   24.9475   14.2147    5.8444 H   0  0  0  0  0  0  0  0  0  0  0  0
   23.3091   11.6990    3.5336 H   0  0  0  0  0  0  0  0  0  0  0  0
  1  2  1  0
  2  3  1  0
  3  4  2  0
  4  5  1  0
  5  6  1  0
  6  7  2  0
  6  8  2  0
  6  9  1  0
  9 10  2  0
 10 11  1  0
 11 12  2  0
 12 13  1  0
 13 14  1  0
 14 15  1  0
 15 16  2  0
 15 17  1  0
 17 18  2  0
 18 19  1  0
 19 20  2  0
 20 21  1  0
 21 22  2  0
 21 23  1  0
 23 24  2  0
 23 25  1  0
 25 26  1  0
 26 27  1  0
 27 28  1  0
 28 29  1  0
 29 30  2  0
 29 31  1  0
 31 32  1  0
 32 33  2  0
 25 34  1  0
 13 35  2  0
  5 36  1  0
 36 37  2  0
 37  3  1  0
 35  9  1  0
 22 17  1  0
 32 26  1  0
 34 20  1  0
  1 38  1  0
  1 39  1  0
  1 40  1  0
  2 41  1  0
  2 42  1  0
  4 43  1  0
 10 44  1  0
 11 45  1  0
 12 46  1  0
 14 47  1  0
 18 48  1  0
 19 49  1  0
 22 50  1  0
 26 51  1  1
 27 52  1  0
 27 53  1  0
 28 54  1  0
 28 55  1  0
 31 56  1  0
 34 57  1  0
 34 58  1  0
 35 59  1  0
 36 60  1  0
M  END
>  <meeko>  (171) 
{"is_sidechain": [true], "free_energy": -13.93, "intermolecular_energy": 0.0, "internal_energy": -13.93, "cluster_size": 20, "cluster_id": 1, "rank_in_cluster": 1}

>  <_RMSD_MCS_to_ref>  (171) 
0.5446909674301559

$$$$
ligand
     RDKit          3D

 61 66  0  0  0  0  0  0  0  0999 V2000
   24.8540    9.4020    7.6050 C   0  0  0  0  0  0  0  0  0  0  0  0
   25.5230   10.7550    7.4270 C   0  0  0  0  0  0  0  0  0  0  0  0
   25.1220   11.4190    6.1570 C   0  0  0  0  0  0  0  0  0  0  0  0
   24.6820   12.7130    5.9560 C   0  0  0  0  0  0  0  0  0  0  0  0
   24.4520   12.7830    4.6120 N   0  0  0  0  0  0  0  0  0  0  0  0
   23.8770   14.1370    3.7880 S   0  0  0  0  0  6  0  0  0  0  0  0
   22.4360   14.0480    3.9610 O   0  0  0  0  0  0  0  0  0  0  0  0
   24.4560   14.0860    2.4580 O   0  0  0  0  0  0  0  0  0  0  0  0
   24.3660   15.4860    4.5590 O   0  0  0  0  0  0  0  0  0  0  0  0
   25.3020   15.4130    5.5590 C   0  0  0  0  0  0  0  0  0  0  0  0
   26.5820   15.0440    5.1970 C   0  0  0  0  0  0  0  0  0  0  0  0
   27.5710   15.0080    6.1880 C   0  0  0  0  0  0  0  0  0  0  0  0
   28.8910   14.6570    5.9010 C   0  0  0  0  0  0  0  0  0  0  0  0
   29.8890   14.6230    6.8110 N   0  0  0  0  0  0  0  0  0  0  0  0
   29.5680   14.9570    8.0750 C   0  0  0  0  0  0  0  0  0  0  0  0
   28.2910   15.3170    8.4720 C   0  0  0  0  0  0  0  0  0  0  0  0
   27.2490   15.3380    7.5190 C   0  0  0  0  0  0  0  0  0  0  0  0
   25.9040   15.6840    7.7800 C   0  0  0  0  0  0  0  0  0  0  0  0
   25.3770   16.0100    9.1170 C   0  0  0  0  0  0  0  0  0  0  0  0
   24.1130   15.5310    9.5470 C   0  0  0  0  0  0  0  0  0  0  0  0
   23.5880   15.8740   10.7970 C   0  0  0  0  0  0  0  0  0  0  0  0
   24.3370   16.7220   11.5890 C   0  0  0  0  0  0  0  0  0  0  0  0
   25.5720   17.2210   11.1930 C   0  0  0  0  0  0  0  0  0  0  0  0
   26.1090   16.8640    9.9680 C   0  0  0  0  0  0  0  0  0  0  0  0
   26.1230   18.1230   12.2440 C   0  0  0  0  0  0  0  0  0  0  0  0
   25.0530   18.1470   13.2330 N   0  0  0  0  0  0  0  0  0  0  0  0
   25.2510   18.7500   14.5450 C   0  0  1  0  0  0  0  0  0  0  0  0
   26.3070   18.0430   15.3940 C   0  0  0  0  0  0  0  0  0  0  0  0
   26.3900   18.7140   16.7560 C   0  0  0  0  0  0  0  0  0  0  0  0
   26.6900   20.1880   16.6230 C   0  0  0  0  0  0  0  0  0  0  0  0
   27.2050   20.8360   17.5310 O   0  0  0  0  0  0  0  0  0  0  0  0
   26.2820   20.8000   15.4640 N   0  0  0  0  0  0  0  0  0  0  0  0
   25.5720   20.2480   14.4220 C   0  0  0  0  0  0  0  0  0  0  0  0
   25.1450   20.9630   13.5160 O   0  0  0  0  0  0  0  0  0  0  0  0
   24.0330   17.2630   12.9180 C   0  0  0  0  0  0  0  0  0  0  0  0
   23.0670   16.9490   13.5870 O   0  0  0  0  0  0  0  0  0  0  0  0
   24.9510   15.7450    6.8080 N   0  0  0  0  0  0  0  0  0  0  0  0
   24.7370   11.5830    4.0460 C   0  0  0  0  0  0  0  0  0  0  0  0
   25.1580   10.7290    4.9600 N   0  0  0  0  0  0  0  0  0  0  0  0
   24.7464    9.1845    8.6779 H   0  0  0  0  0  0  0  0  0  0  0  0
   23.8606    9.4192    7.1330 H   0  0  0  0  0  0  0  0  0  0  0  0
   25.4708    8.6230    7.1330 H   0  0  0  0  0  0  0  0  0  0  0  0
   25.2407   11.4031    8.2698 H   0  0  0  0  0  0  0  0  0  0  0  0
   26.6103   10.5917    7.3934 H   0  0  0  0  0  0  0  0  0  0  0  0
   24.5477   13.5055    6.7069 H   0  0  0  0  0  0  0  0  0  0  0  0
   26.8196   14.7844    4.1548 H   0  0  0  0  0  0  0  0  0  0  0  0
   29.1356   14.3896    4.8624 H   0  0  0  0  0  0  0  0  0  0  0  0
   30.3638   14.9432    8.8343 H   0  0  0  0  0  0  0  0  0  0  0  0
   28.0902   15.5841    9.5200 H   0  0  0  0  0  0  0  0  0  0  0  0
   23.5324   14.8747    8.8820 H   0  0  0  0  0  0  0  0  0  0  0  0
   22.6170   15.4838   11.1360 H   0  0  0  0  0  0  0  0  0  0  0  0
   27.0955   17.2421    9.6617 H   0  0  0  0  0  0  0  0  0  0  0  0
   27.0504   17.7146   12.6718 H   0  0  0  0  0  0  0  0  0  0  0  0
   26.3939   19.1204   11.8674 H   0  0  0  0  0  0  0  0  0  0  0  0
   24.2956   18.6270   15.0761 H   0  0  0  0  0  0  0  0  0  0  0  0
   26.0287   16.9864   15.5215 H   0  0  0  0  0  0  0  0  0  0  0  0
   27.2842   18.1052   14.8929 H   0  0  0  0  0  0  0  0  0  0  0  0
   25.4289   18.5893   17.2763 H   0  0  0  0  0  0  0  0  0  0  0  0
   27.2046   18.2435   17.3262 H   0  0  0  0  0  0  0  0  0  0  0  0
   26.5382   21.7924   15.3617 H   0  0  0  0  0  0  0  0  0  0  0  0
   24.6318   11.3541    2.9752 H   0  0  0  0  0  0  0  0  0  0  0  0
  1  2  1  0
  2  3  1  0
  3  4  2  0
  4  5  1  0
  5  6  1  0
  6  7  2  0
  6  8  2  0
  6  9  1  0
  9 10  1  0
 10 11  2  0
 11 12  1  0
 12 13  2  0
 13 14  1  0
 14 15  2  0
 15 16  1  0
 16 17  2  0
 17 18  1  0
 18 19  1  0
 19 20  2  0
 20 21  1  0
 21 22  2  0
 22 23  1  0
 23 24  2  0
 23 25  1  0
 25 26  1  0
 26 27  1  0
 27 28  1  0
 28 29  1  0
 29 30  1  0
 30 31  2  0
 30 32  1  0
 32 33  1  0
 33 34  2  0
 26 35  1  0
 35 36  2  0
 18 37  2  0
  5 38  1  0
 38 39  2  0
 39  3  1  0
 37 10  1  0
 17 12  1  0
 24 19  1  0
 33 27  1  0
 35 22  1  0
  1 40  1  0
  1 41  1  0
  1 42  1  0
  2 43  1  0
  2 44  1  0
  4 45  1  0
 11 46  1  0
 13 47  1  0
 15 48  1  0
 16 49  1  0
 20 50  1  0
 21 51  1  0
 24 52  1  0
 25 53  1  0
 25 54  1  0
 27 55  1  1
 28 56  1  0
 28 57  1  0
 29 58  1  0
 29 59  1  0
 32 60  1  0
 38 61  1  0
M  END
>  <meeko>  (172) 
{"is_sidechain": [true], "free_energy": -13.93, "intermolecular_energy": 0.0, "internal_energy": -13.93, "cluster_size": 6, "cluster_id": 1, "rank_in_cluster": 1}

>  <_RMSD_MCS_to_ref>  (172) 
0.5328895028260747

$$$$
ligand
     RDKit          3D

 59 63  0  0  0  0  0  0  0  0999 V2000
   24.8540    9.4020    7.6050 C   0  0  0  0  0  0  0  0  0  0  0  0
   25.5230   10.7550    7.4270 C   0  0  0  0  0  0  0  0  0  0  0  0
   27.0040   10.6430    7.3310 C   0  0  0  0  0  0  0  0  0  0  0  0
   27.8800   11.3750    6.5550 C   0  0  0  0  0  0  0  0  0  0  0  0
   29.1090   10.8590    6.8570 N   0  0  0  0  0  0  0  0  0  0  0  0
   30.5870   11.4430    6.3120 S   0  0  0  0  0  6  0  0  0  0  0  0
   30.2640   12.1480    5.0830 O   0  0  0  0  0  0  0  0  0  0  0  0
   31.4990   10.3150    6.3280 O   0  0  0  0  0  0  0  0  0  0  0  0
   31.1750   12.6340    7.4630 C   0  0  0  0  0  0  0  0  0  0  0  0
   32.5540   12.8950    7.5080 C   0  0  0  0  0  0  0  0  0  0  0  0
   33.0720   13.8430    8.4080 C   0  0  0  0  0  0  0  0  0  0  0  0
   32.2270   14.5410    9.2720 C   0  0  0  0  0  0  0  0  0  0  0  0
   30.8710   14.2680    9.2110 C   0  0  0  0  0  0  0  0  0  0  0  0
   30.3390   13.3220    8.3200 C   0  0  0  0  0  0  0  0  0  0  0  0
   28.9440   13.2230    8.4460 N   0  0  0  0  0  0  0  0  0  0  0  0
   28.6100   14.0850    9.3710 C   0  0  0  0  0  0  0  0  0  0  0  0
   27.1870   14.3280    9.8030 C   0  0  0  0  0  0  0  0  0  0  0  0
   26.3420   13.5170    9.4590 O   0  0  0  0  0  0  0  0  0  0  0  0
   27.0590   15.4680   10.5610 N   0  0  0  0  0  0  0  0  0  0  0  0
   25.8860   16.0000   11.1250 C   0  0  0  0  0  0  0  0  0  0  0  0
   24.6110   15.8150   10.5920 C   0  0  0  0  0  0  0  0  0  0  0  0
   23.4990   16.3800   11.2210 C   0  0  0  0  0  0  0  0  0  0  0  0
   23.6500   17.1310   12.3870 C   0  0  0  0  0  0  0  0  0  0  0  0
   24.9210   17.3330   12.9370 C   0  0  0  0  0  0  0  0  0  0  0  0
   25.0870   18.1280   14.2220 C   0  0  1  0  0  0  0  0  0  0  0  0
   26.2660   17.5770   15.0310 C   0  0  0  0  0  0  0  0  0  0  0  0
   26.4290   18.3700   16.3170 C   0  0  0  0  0  0  0  0  0  0  0  0
   26.6210   19.8370   16.0260 C   0  0  0  0  0  0  0  0  0  0  0  0
   27.1780   20.5940   16.8140 O   0  0  0  0  0  0  0  0  0  0  0  0
   26.0650   20.3050   14.8620 N   0  0  0  0  0  0  0  0  0  0  0  0
   25.2500   19.6310   13.9840 C   0  0  0  0  0  0  0  0  0  0  0  0
   24.6460   20.2530   13.1110 O   0  0  0  0  0  0  0  0  0  0  0  0
   26.0300   16.7600   12.2920 C   0  0  0  0  0  0  0  0  0  0  0  0
   29.7470   14.8580   10.0010 C   0  0  0  0  0  0  0  0  0  0  0  0
   28.9590    9.8580    7.7640 C   0  0  0  0  0  0  0  0  0  0  0  0
   27.6900    9.7140    8.0910 N   0  0  0  0  0  0  0  0  0  0  0  0
   24.7464    9.1845    8.6779 H   0  0  0  0  0  0  0  0  0  0  0  0
   23.8606    9.4192    7.1330 H   0  0  0  0  0  0  0  0  0  0  0  0
   25.4708    8.6230    7.1330 H   0  0  0  0  0  0  0  0  0  0  0  0
   25.1426   11.2195    6.5053 H   0  0  0  0  0  0  0  0  0  0  0  0
   25.2877   11.3663    8.3107 H   0  0  0  0  0  0  0  0  0  0  0  0
   27.6429   12.1883    5.8534 H   0  0  0  0  0  0  0  0  0  0  0  0
   33.2342   12.3537    6.8340 H   0  0  0  0  0  0  0  0  0  0  0  0
   34.1546   14.0365    8.4313 H   0  0  0  0  0  0  0  0  0  0  0  0
   32.6254   15.2840    9.9786 H   0  0  0  0  0  0  0  0  0  0  0  0
   27.9261   15.9954   10.7367 H   0  0  0  0  0  0  0  0  0  0  0  0
   24.4804   15.2229    9.6742 H   0  0  0  0  0  0  0  0  0  0  0  0
   22.4964   16.2316   10.7936 H   0  0  0  0  0  0  0  0  0  0  0  0
   22.7662   17.5663   12.8762 H   0  0  0  0  0  0  0  0  0  0  0  0
   24.1564   18.0072   14.7960 H   0  0  0  0  0  0  0  0  0  0  0  0
   26.0784   16.5210   15.2754 H   0  0  0  0  0  0  0  0  0  0  0  0
   27.1858   17.6638   14.4340 H   0  0  0  0  0  0  0  0  0  0  0  0
   25.5289   18.2408   16.9360 H   0  0  0  0  0  0  0  0  0  0  0  0
   27.3180   17.9985   16.8478 H   0  0  0  0  0  0  0  0  0  0  0  0
   26.2853   21.2807   14.6162 H   0  0  0  0  0  0  0  0  0  0  0  0
   27.0345   16.9120   12.7137 H   0  0  0  0  0  0  0  0  0  0  0  0
   29.6511   15.9422    9.8416 H   0  0  0  0  0  0  0  0  0  0  0  0
   29.8345   14.7779   11.0946 H   0  0  0  0  0  0  0  0  0  0  0  0
   29.7826    9.2518    8.1692 H   0  0  0  0  0  0  0  0  0  0  0  0
  1  2  1  0
  2  3  1  0
  3  4  2  0
  4  5  1  0
  5  6  1  0
  6  7  2  0
  6  8  2  0
  6  9  1  0
  9 10  2  0
 10 11  1  0
 11 12  2  0
 12 13  1  0
 13 14  2  0
 14 15  1  0
 15 16  2  0
 16 17  1  0
 17 18  2  0
 17 19  1  0
 19 20  1  0
 20 21  2  0
 21 22  1  0
 22 23  2  0
 23 24  1  0
 24 25  1  0
 25 26  1  0
 26 27  1  0
 27 28  1  0
 28 29  2  0
 28 30  1  0
 30 31  1  0
 31 32  2  0
 24 33  2  0
 16 34  1  0
  5 35  1  0
 35 36  2  0
 36  3  1  0
 14  9  1  0
 33 20  1  0
 34 13  1  0
 31 25  1  0
  1 37  1  0
  1 38  1  0
  1 39  1  0
  2 40  1  0
  2 41  1  0
  4 42  1  0
 10 43  1  0
 11 44  1  0
 12 45  1  0
 19 46  1  0
 21 47  1  0
 22 48  1  0
 23 49  1  0
 25 50  1  1
 26 51  1  0
 26 52  1  0
 27 53  1  0
 27 54  1  0
 30 55  1  0
 33 56  1  0
 34 57  1  0
 34 58  1  0
 35 59  1  0
M  END
>  <meeko>  (173) 
{"is_sidechain": [true], "free_energy": -13.92, "intermolecular_energy": 0.0, "internal_energy": -13.92, "cluster_size": 17, "cluster_id": 1, "rank_in_cluster": 1}

>  <_RMSD_MCS_to_ref>  (173) 
0.5897900050017796

$$$$
ligand
     RDKit          3D

 57 61  0  0  0  0  0  0  0  0999 V2000
   24.8540    9.4020    7.6050 C   0  0  0  0  0  0  0  0  0  0  0  0
   25.5230   10.7550    7.4270 C   0  0  0  0  0  0  0  0  0  0  0  0
   24.7310   11.6640    6.5550 C   0  0  0  0  0  0  0  0  0  0  0  0
   25.0810   12.2320    5.3460 C   0  0  0  0  0  0  0  0  0  0  0  0
   23.9770   12.9490    4.9780 N   0  0  0  0  0  0  0  0  0  0  0  0
   23.9190   14.0750    3.7190 S   0  0  0  0  0  6  0  0  0  0  0  0
   24.9590   13.6370    2.8050 O   0  0  0  0  0  0  0  0  0  0  0  0
   22.5280   14.1110    3.3050 O   0  0  0  0  0  0  0  0  0  0  0  0
   24.3610   15.5280    4.3330 O   0  0  0  0  0  0  0  0  0  0  0  0
   25.2550   15.5530    5.3680 C   0  0  0  0  0  0  0  0  0  0  0  0
   26.6070   15.3380    5.1270 C   0  0  0  0  0  0  0  0  0  0  0  0
   27.5040   15.3730    6.1900 C   0  0  0  0  0  0  0  0  0  0  0  0
   27.0440   15.6230    7.4860 C   0  0  0  0  0  0  0  0  0  0  0  0
   25.6780   15.8270    7.7430 C   0  0  0  0  0  0  0  0  0  0  0  0
   25.1960   16.1180    9.1020 C   0  0  0  0  0  0  0  0  0  0  0  0
   23.9120   15.6800    9.5180 C   0  0  0  0  0  0  0  0  0  0  0  0
   23.4160   15.9470   10.8010 C   0  0  0  0  0  0  0  0  0  0  0  0
   24.2190   16.6550   11.6730 C   0  0  0  0  0  0  0  0  0  0  0  0
   25.4790   17.0850   11.2690 C   0  0  0  0  0  0  0  0  0  0  0  0
   25.9900   16.8400   10.0070 C   0  0  0  0  0  0  0  0  0  0  0  0
   26.0940   17.8080   12.3860 C   0  0  0  0  0  0  0  0  0  0  0  0
   27.1650   18.3820   12.3330 O   0  0  0  0  0  0  0  0  0  0  0  0
   25.2170   17.7140   13.4570 N   0  0  0  0  0  0  0  0  0  0  0  0
   25.3390   18.4850   14.6900 C   0  0  1  0  0  0  0  0  0  0  0  0
   26.3580   17.9130   15.6750 C   0  0  0  0  0  0  0  0  0  0  0  0
   26.3610   18.7530   16.9420 C   0  0  0  0  0  0  0  0  0  0  0  0
   26.6480   20.2040   16.6380 C   0  0  0  0  0  0  0  0  0  0  0  0
   27.1020   20.9720   17.4810 O   0  0  0  0  0  0  0  0  0  0  0  0
   26.2970   20.6540   15.3890 N   0  0  0  0  0  0  0  0  0  0  0  0
   25.6450   19.9620   14.3940 C   0  0  0  0  0  0  0  0  0  0  0  0
   25.2500   20.5490   13.3870 O   0  0  0  0  0  0  0  0  0  0  0  0
   23.9530   17.1020   13.0700 C   0  0  0  0  0  0  0  0  0  0  0  0
   24.7840   15.7640    6.6640 C   0  0  0  0  0  0  0  0  0  0  0  0
   23.0410   12.8570    5.9590 C   0  0  0  0  0  0  0  0  0  0  0  0
   23.4660   12.0720    6.9290 N   0  0  0  0  0  0  0  0  0  0  0  0
   24.7464    9.1845    8.6779 H   0  0  0  0  0  0  0  0  0  0  0  0
   23.8606    9.4192    7.1330 H   0  0  0  0  0  0  0  0  0  0  0  0
   25.4708    8.6230    7.1330 H   0  0  0  0  0  0  0  0  0  0  0  0
   25.6401   11.2248    8.4147 H   0  0  0  0  0  0  0  0  0  0  0  0
   26.4974   10.5887    6.9444 H   0  0  0  0  0  0  0  0  0  0  0  0
   26.0320   12.1305    4.8026 H   0  0  0  0  0  0  0  0  0  0  0  0
   26.9644   15.1420    4.1053 H   0  0  0  0  0  0  0  0  0  0  0  0
   28.5760   15.2038    6.0104 H   0  0  0  0  0  0  0  0  0  0  0  0
   27.7629   15.6606    8.3178 H   0  0  0  0  0  0  0  0  0  0  0  0
   23.2870   15.1137    8.8118 H   0  0  0  0  0  0  0  0  0  0  0  0
   22.4163   15.6027   11.1046 H   0  0  0  0  0  0  0  0  0  0  0  0
   26.9892   17.2004    9.7210 H   0  0  0  0  0  0  0  0  0  0  0  0
   24.3582   18.4119   15.1827 H   0  0  0  0  0  0  0  0  0  0  0  0
   26.0871   16.8760   15.9227 H   0  0  0  0  0  0  0  0  0  0  0  0
   27.3593   17.9304   15.2199 H   0  0  0  0  0  0  0  0  0  0  0  0
   25.3757   18.6763   17.4251 H   0  0  0  0  0  0  0  0  0  0  0  0
   27.1513   18.3749   17.6072 H   0  0  0  0  0  0  0  0  0  0  0  0
   26.5527   21.6275   15.1703 H   0  0  0  0  0  0  0  0  0  0  0  0
   23.7102   16.2485   13.7200 H   0  0  0  0  0  0  0  0  0  0  0  0
   23.0942   17.7842   13.1538 H   0  0  0  0  0  0  0  0  0  0  0  0
   23.7047   15.8817    6.8409 H   0  0  0  0  0  0  0  0  0  0  0  0
   22.0659   13.3660    5.9455 H   0  0  0  0  0  0  0  0  0  0  0  0
  1  2  1  0
  2  3  1  0
  3  4  2  0
  4  5  1  0
  5  6  1  0
  6  7  2  0
  6  8  2  0
  6  9  1  0
  9 10  1  0
 10 11  2  0
 11 12  1  0
 12 13  2  0
 13 14  1  0
 14 15  1  0
 15 16  2  0
 16 17  1  0
 17 18  2  0
 18 19  1  0
 19 20  2  0
 19 21  1  0
 21 22  2  0
 21 23  1  0
 23 24  1  0
 24 25  1  0
 25 26  1  0
 26 27  1  0
 27 28  2  0
 27 29  1  0
 29 30  1  0
 30 31  2  0
 23 32  1  0
 14 33  2  0
  5 34  1  0
 34 35  2  0
 35  3  1  0
 33 10  1  0
 20 15  1  0
 30 24  1  0
 32 18  1  0
  1 36  1  0
  1 37  1  0
  1 38  1  0
  2 39  1  0
  2 40  1  0
  4 41  1  0
 11 42  1  0
 12 43  1  0
 13 44  1  0
 16 45  1  0
 17 46  1  0
 20 47  1  0
 24 48  1  1
 25 49  1  0
 25 50  1  0
 26 51  1  0
 26 52  1  0
 29 53  1  0
 32 54  1  0
 32 55  1  0
 33 56  1  0
 34 57  1  0
M  END
>  <meeko>  (174) 
{"is_sidechain": [true], "free_energy": -13.92, "intermolecular_energy": 0.0, "internal_energy": -13.92, "cluster_size": 19, "cluster_id": 1, "rank_in_cluster": 1}

>  <_RMSD_MCS_to_ref>  (174) 
0.5197579564887224

$$$$
ligand
     RDKit          3D

 62 67  0  0  0  0  0  0  0  0999 V2000
   24.8710    9.6170    7.7820 C   0  0  0  0  0  0  0  0  0  0  0  0
   25.4240   10.9640    7.3490 C   0  0  0  0  0  0  0  0  0  0  0  0
   26.8350   11.1640    7.7750 C   0  0  0  0  0  0  0  0  0  0  0  0
   27.3200   11.7680    8.9190 C   0  0  0  0  0  0  0  0  0  0  0  0
   28.6760   11.6440    8.8140 N   0  0  0  0  0  0  0  0  0  0  0  0
   29.8330   12.3830    9.7990 S   0  0  0  0  0  6  0  0  0  0  0  0
   29.5270   11.9440   11.1470 O   0  0  0  0  0  0  0  0  0  0  0  0
   31.0960   12.0470    9.1700 O   0  0  0  0  0  0  0  0  0  0  0  0
   29.6360   14.0040    9.6900 O   0  0  0  0  0  0  0  0  0  0  0  0
   28.5200   14.5280    9.1040 C   0  0  0  0  0  0  0  0  0  0  0  0
   27.3620   14.8330    9.8240 C   0  0  0  0  0  0  0  0  0  0  0  0
   26.2140   15.3420    9.1750 C   0  0  0  0  0  0  0  0  0  0  0  0
   24.9850   15.5790    9.9340 C   0  0  0  0  0  0  0  0  0  0  0  0
   23.7200   15.2830    9.3920 C   0  0  0  0  0  0  0  0  0  0  0  0
   22.5310   15.5510   10.1000 C   0  0  0  0  0  0  0  0  0  0  0  0
   22.5760   16.1310   11.3670 C   0  0  0  0  0  0  0  0  0  0  0  0
   23.8230   16.4110   11.8890 C   0  0  0  0  0  0  0  0  0  0  0  0
   25.0090   16.1420   11.2060 C   0  0  0  0  0  0  0  0  0  0  0  0
   26.1720   16.5950   12.0250 C   0  0  0  0  0  0  0  0  0  0  0  0
   25.5470   17.0550   13.2580 N   0  0  0  0  0  0  0  0  0  0  0  0
   26.3080   17.8050   14.2520 C   0  0  2  0  0  0  0  0  0  0  0  0
   25.7770   17.6670   15.6770 C   0  0  0  0  0  0  0  0  0  0  0  0
   26.6850   18.4310   16.6280 C   0  0  0  0  0  0  0  0  0  0  0  0
   26.8050   19.8820   16.2250 C   0  0  0  0  0  0  0  0  0  0  0  0
   27.1290   20.7580   17.0220 O   0  0  0  0  0  0  0  0  0  0  0  0
   26.6180   20.1710   14.8970 N   0  0  0  0  0  0  0  0  0  0  0  0
   26.4250   19.2870   13.8610 C   0  0  0  0  0  0  0  0  0  0  0  0
   26.4650   19.6790   12.6950 O   0  0  0  0  0  0  0  0  0  0  0  0
   24.1650   17.0460   13.1680 C   0  0  0  0  0  0  0  0  0  0  0  0
   23.3510   17.4880   13.9560 O   0  0  0  0  0  0  0  0  0  0  0  0
   26.2610   15.5830    7.7920 C   0  0  0  0  0  0  0  0  0  0  0  0
   27.4330   15.3140    7.1160 C   0  0  0  0  0  0  0  0  0  0  0  0
   28.5500   14.7970    7.7510 C   0  0  0  0  0  0  0  0  0  0  0  0
   29.6080   14.5530    6.7440 C   0  0  0  0  0  0  0  0  0  0  0  0
   29.0300   15.3590    5.5800 C   0  0  0  0  0  0  0  0  0  0  0  0
   27.6020   15.5020    5.7690 O   0  0  0  0  0  0  0  0  0  0  0  0
   28.9780   11.0450    7.6330 C   0  0  0  0  0  0  0  0  0  0  0  0
   27.8800   10.7320    6.9790 N   0  0  0  0  0  0  0  0  0  0  0  0
   24.8498    9.5653    8.8806 H   0  0  0  0  0  0  0  0  0  0  0  0
   23.8505    9.4962    7.3895 H   0  0  0  0  0  0  0  0  0  0  0  0
   25.5122    8.8140    7.3895 H   0  0  0  0  0  0  0  0  0  0  0  0
   25.3740   11.0298    6.2521 H   0  0  0  0  0  0  0  0  0  0  0  0
   24.8160   11.7449    7.8291 H   0  0  0  0  0  0  0  0  0  0  0  0
   26.7454   12.2407    9.7292 H   0  0  0  0  0  0  0  0  0  0  0  0
   27.3434   14.6746   10.9124 H   0  0  0  0  0  0  0  0  0  0  0  0
   23.6578   14.8313    8.3910 H   0  0  0  0  0  0  0  0  0  0  0  0
   21.5595   15.3004    9.6491 H   0  0  0  0  0  0  0  0  0  0  0  0
   21.6565   16.3561   11.9272 H   0  0  0  0  0  0  0  0  0  0  0  0
   26.8657   15.7638   12.2199 H   0  0  0  0  0  0  0  0  0  0  0  0
   26.7745   17.3706   11.5295 H   0  0  0  0  0  0  0  0  0  0  0  0
   27.3097   17.3506   14.2549 H   0  0  0  0  0  0  0  0  0  0  0  0
   24.7585   18.0789   15.7311 H   0  0  0  0  0  0  0  0  0  0  0  0
   25.7563   16.6045   15.9612 H   0  0  0  0  0  0  0  0  0  0  0  0
   26.2681   18.3746   17.6444 H   0  0  0  0  0  0  0  0  0  0  0  0
   27.6862   17.9767   16.5924 H   0  0  0  0  0  0  0  0  0  0  0  0
   26.6227   21.1698   14.6455 H   0  0  0  0  0  0  0  0  0  0  0  0
   25.3828   15.9774    7.2598 H   0  0  0  0  0  0  0  0  0  0  0  0
   30.5837   14.9426    7.0698 H   0  0  0  0  0  0  0  0  0  0  0  0
   29.8157   13.4949    6.5265 H   0  0  0  0  0  0  0  0  0  0  0  0
   29.4996   16.3533    5.5508 H   0  0  0  0  0  0  0  0  0  0  0  0
   29.2291   14.8378    4.6320 H   0  0  0  0  0  0  0  0  0  0  0  0
   29.9988   10.8488    7.2732 H   0  0  0  0  0  0  0  0  0  0  0  0
  1  2  1  0
  2  3  1  0
  3  4  2  0
  4  5  1  0
  5  6  1  0
  6  7  2  0
  6  8  2  0
  6  9  1  0
  9 10  1  0
 10 11  2  0
 11 12  1  0
 12 13  1  0
 13 14  2  0
 14 15  1  0
 15 16  2  0
 16 17  1  0
 17 18  2  0
 18 19  1  0
 19 20  1  0
 20 21  1  0
 21 22  1  0
 22 23  1  0
 23 24  1  0
 24 25  2  0
 24 26  1  0
 26 27  1  0
 27 28  2  0
 20 29  1  0
 29 30  2  0
 12 31  2  0
 31 32  1  0
 32 33  2  0
 33 34  1  0
 34 35  1  0
 35 36  1  0
  5 37  1  0
 37 38  2  0
 38  3  1  0
 33 10  1  0
 18 13  1  0
 27 21  1  0
 36 32  1  0
 29 17  1  0
  1 39  1  0
  1 40  1  0
  1 41  1  0
  2 42  1  0
  2 43  1  0
  4 44  1  0
 11 45  1  0
 14 46  1  0
 15 47  1  0
 16 48  1  0
 19 49  1  0
 19 50  1  0
 21 51  1  1
 22 52  1  0
 22 53  1  0
 23 54  1  0
 23 55  1  0
 26 56  1  0
 31 57  1  0
 34 58  1  0
 34 59  1  0
 35 60  1  0
 35 61  1  0
 37 62  1  0
M  END
>  <meeko>  (175) 
{"is_sidechain": [true], "free_energy": -13.92, "intermolecular_energy": 0.0, "internal_energy": -13.92, "cluster_size": 17, "cluster_id": 1, "rank_in_cluster": 1}

>  <_RMSD_MCS_to_ref>  (175) 
1.1837821918654539

$$$$
ligand
     RDKit          3D

 57 61  0  0  0  0  0  0  0  0999 V2000
   24.8710    9.6160    7.7820 C   0  0  0  0  0  0  0  0  0  0  0  0
   25.4240   10.9650    7.3490 C   0  0  0  0  0  0  0  0  0  0  0  0
   26.8240   11.1720    7.8100 C   0  0  0  0  0  0  0  0  0  0  0  0
   27.2760   11.7080    8.9990 C   0  0  0  0  0  0  0  0  0  0  0  0
   28.6370   11.6530    8.8980 N   0  0  0  0  0  0  0  0  0  0  0  0
   29.7410   12.4400    9.9070 S   0  0  0  0  0  6  0  0  0  0  0  0
   29.3090   12.1310   11.2580 O   0  0  0  0  0  0  0  0  0  0  0  0
   31.0390   12.0090    9.4180 O   0  0  0  0  0  0  0  0  0  0  0  0
   29.6110   14.0530    9.6460 O   0  0  0  0  0  0  0  0  0  0  0  0
   28.4880   14.5230    9.0210 C   0  0  0  0  0  0  0  0  0  0  0  0
   28.4990   14.8050    7.6580 C   0  0  0  0  0  0  0  0  0  0  0  0
   27.3520   15.3230    7.0600 C   0  0  0  0  0  0  0  0  0  0  0  0
   26.2040   15.5470    7.8260 C   0  0  0  0  0  0  0  0  0  0  0  0
   26.1740   15.2370    9.1960 C   0  0  0  0  0  0  0  0  0  0  0  0
   24.9770   15.4850   10.0050 C   0  0  0  0  0  0  0  0  0  0  0  0
   23.7260   14.9580    9.6220 C   0  0  0  0  0  0  0  0  0  0  0  0
   22.5620   15.1730   10.3860 C   0  0  0  0  0  0  0  0  0  0  0  0
   22.6150   15.9280   11.5550 C   0  0  0  0  0  0  0  0  0  0  0  0
   23.8420   16.4500   11.9150 C   0  0  0  0  0  0  0  0  0  0  0  0
   25.0070   16.2440   11.1720 C   0  0  0  0  0  0  0  0  0  0  0  0
   26.1510   16.9460   11.8300 C   0  0  0  0  0  0  0  0  0  0  0  0
   25.5140   17.6220   12.9540 N   0  0  0  0  0  0  0  0  0  0  0  0
   26.2580   18.2360   14.0460 C   0  0  2  0  0  0  0  0  0  0  0  0
   25.8070   17.7330   15.4150 C   0  0  0  0  0  0  0  0  0  0  0  0
   26.6850   18.3480   16.4940 C   0  0  0  0  0  0  0  0  0  0  0  0
   26.6720   19.8570   16.4130 C   0  0  0  0  0  0  0  0  0  0  0  0
   26.7080   20.5690   17.4110 O   0  0  0  0  0  0  0  0  0  0  0  0
   26.6330   20.4040   15.1550 N   0  0  0  0  0  0  0  0  0  0  0  0
   26.1640   19.7720   14.0250 C   0  0  0  0  0  0  0  0  0  0  0  0
   25.6990   20.4290   13.0960 O   0  0  0  0  0  0  0  0  0  0  0  0
   24.1760   17.2810   13.0760 C   0  0  0  0  0  0  0  0  0  0  0  0
   23.4030   17.5950   13.9600 O   0  0  0  0  0  0  0  0  0  0  0  0
   27.3320   14.7050    9.7810 C   0  0  0  0  0  0  0  0  0  0  0  0
   28.9710   11.1500    7.6800 C   0  0  0  0  0  0  0  0  0  0  0  0
   27.8900   10.8390    6.9960 N   0  0  0  0  0  0  0  0  0  0  0  0
   24.8497    9.5640    8.8806 H   0  0  0  0  0  0  0  0  0  0  0  0
   23.8507    9.4948    7.3893 H   0  0  0  0  0  0  0  0  0  0  0  0
   25.5127    8.8135    7.3893 H   0  0  0  0  0  0  0  0  0  0  0  0
   25.4005   11.0217    6.2507 H   0  0  0  0  0  0  0  0  0  0  0  0
   24.7992   11.7481    7.8033 H   0  0  0  0  0  0  0  0  0  0  0  0
   26.6764   12.0921    9.8374 H   0  0  0  0  0  0  0  0  0  0  0  0
   29.4033   14.6209    7.0594 H   0  0  0  0  0  0  0  0  0  0  0  0
   27.3497   15.5558    5.9849 H   0  0  0  0  0  0  0  0  0  0  0  0
   25.3095   15.9730    7.3481 H   0  0  0  0  0  0  0  0  0  0  0  0
   23.6572   14.3619    8.7001 H   0  0  0  0  0  0  0  0  0  0  0  0
   21.6051   14.7417   10.0570 H   0  0  0  0  0  0  0  0  0  0  0  0
   21.7170   16.1014   12.1662 H   0  0  0  0  0  0  0  0  0  0  0  0
   26.9088   16.2284   12.1775 H   0  0  0  0  0  0  0  0  0  0  0  0
   26.6857   17.6319   11.1564 H   0  0  0  0  0  0  0  0  0  0  0  0
   27.3044   17.9377   13.8847 H   0  0  0  0  0  0  0  0  0  0  0  0
   24.7595   18.0222   15.5853 H   0  0  0  0  0  0  0  0  0  0  0  0
   25.8945   16.6371   15.4507 H   0  0  0  0  0  0  0  0  0  0  0  0
   26.3110   18.0382   17.4810 H   0  0  0  0  0  0  0  0  0  0  0  0
   27.7175   17.9995   16.3443 H   0  0  0  0  0  0  0  0  0  0  0  0
   26.9834   21.3665   15.0471 H   0  0  0  0  0  0  0  0  0  0  0  0
   27.3291   14.4294   10.8459 H   0  0  0  0  0  0  0  0  0  0  0  0
   30.0012   11.0208    7.3165 H   0  0  0  0  0  0  0  0  0  0  0  0
  1  2  1  0
  2  3  1  0
  3  4  2  0
  4  5  1  0
  5  6  1  0
  6  7  2  0
  6  8  2  0
  6  9  1  0
  9 10  1  0
 10 11  2  0
 11 12  1  0
 12 13  2  0
 13 14  1  0
 14 15  1  0
 15 16  2  0
 16 17  1  0
 17 18  2  0
 18 19  1  0
 19 20  2  0
 20 21  1  0
 21 22  1  0
 22 23  1  0
 23 24  1  0
 24 25  1  0
 25 26  1  0
 26 27  2  0
 26 28  1  0
 28 29  1  0
 29 30  2  0
 22 31  1  0
 31 32  2  0
 14 33  2  0
  5 34  1  0
 34 35  2  0
 35  3  1  0
 33 10  1  0
 20 15  1  0
 29 23  1  0
 31 19  1  0
  1 36  1  0
  1 37  1  0
  1 38  1  0
  2 39  1  0
  2 40  1  0
  4 41  1  0
 11 42  1  0
 12 43  1  0
 13 44  1  0
 16 45  1  0
 17 46  1  0
 18 47  1  0
 21 48  1  0
 21 49  1  0
 23 50  1  6
 24 51  1  0
 24 52  1  0
 25 53  1  0
 25 54  1  0
 28 55  1  0
 33 56  1  0
 34 57  1  0
M  END
>  <meeko>  (176) 
{"is_sidechain": [true], "free_energy": -13.92, "intermolecular_energy": 0.0, "internal_energy": -13.92, "cluster_size": 18, "cluster_id": 1, "rank_in_cluster": 1}

>  <_RMSD_MCS_to_ref>  (176) 
1.1162704272113755

$$$$
ligand
     RDKit          3D

 57 61  0  0  0  0  0  0  0  0999 V2000
   24.8540    9.4020    7.6050 C   0  0  0  0  0  0  0  0  0  0  0  0
   25.5230   10.7550    7.4270 C   0  0  0  0  0  0  0  0  0  0  0  0
   25.2780   11.3350    6.0770 C   0  0  0  0  0  0  0  0  0  0  0  0
   25.9430   12.3640    5.4390 C   0  0  0  0  0  0  0  0  0  0  0  0
   25.3370   12.4500    4.2180 N   0  0  0  0  0  0  0  0  0  0  0  0
   25.5350   13.6940    3.1110 S   0  0  0  0  0  6  0  0  0  0  0  0
   26.6190   13.3000    2.2340 O   0  0  0  0  0  0  0  0  0  0  0  0
   24.2100   14.0370    2.6370 O   0  0  0  0  0  0  0  0  0  0  0  0
   26.1190   15.1240    4.0010 C   0  0  0  0  0  0  0  0  0  0  0  0
   27.0250   16.1150    3.6430 C   0  0  0  0  0  0  0  0  0  0  0  0
   27.1250   17.0180    4.7260 C   0  0  0  0  0  0  0  0  0  0  0  0
   26.2790   16.5500    5.7090 C   0  0  0  0  0  0  0  0  0  0  0  0
   25.9780   17.0620    7.0370 C   0  0  0  0  0  0  0  0  0  0  0  0
   26.3020   18.1930    7.3810 O   0  0  0  0  0  0  0  0  0  0  0  0
   25.3110   16.1390    7.8240 N   0  0  0  0  0  0  0  0  0  0  0  0
   24.8930   16.2680    9.1620 C   0  0  0  0  0  0  0  0  0  0  0  0
   23.7160   15.6880    9.6780 C   0  0  0  0  0  0  0  0  0  0  0  0
   23.3400   15.8630   11.0190 C   0  0  0  0  0  0  0  0  0  0  0  0
   24.1560   16.6230   11.8340 C   0  0  0  0  0  0  0  0  0  0  0  0
   25.3170   17.1880   11.3180 C   0  0  0  0  0  0  0  0  0  0  0  0
   25.7100   17.0310   10.0030 C   0  0  0  0  0  0  0  0  0  0  0  0
   25.9710   17.9450   12.3900 C   0  0  0  0  0  0  0  0  0  0  0  0
   26.9600   18.6350   12.2420 O   0  0  0  0  0  0  0  0  0  0  0  0
   25.2290   17.7310   13.5430 N   0  0  0  0  0  0  0  0  0  0  0  0
   25.4060   18.4790   14.7830 C   0  0  1  0  0  0  0  0  0  0  0  0
   26.5080   17.9250   15.6840 C   0  0  0  0  0  0  0  0  0  0  0  0
   26.5650   18.7370   16.9690 C   0  0  0  0  0  0  0  0  0  0  0  0
   26.7780   20.2050   16.6810 C   0  0  0  0  0  0  0  0  0  0  0  0
   27.2640   20.9700   17.5080 O   0  0  0  0  0  0  0  0  0  0  0  0
   26.3230   20.6680   15.4710 N   0  0  0  0  0  0  0  0  0  0  0  0
   25.6360   19.9730   14.5030 C   0  0  0  0  0  0  0  0  0  0  0  0
   25.1600   20.5640   13.5340 O   0  0  0  0  0  0  0  0  0  0  0  0
   24.0000   16.9980   13.2690 C   0  0  0  0  0  0  0  0  0  0  0  0
   25.6670   15.4060    5.2740 O   0  0  0  0  0  0  0  0  0  0  0  0
   24.3150   11.5580    4.1660 C   0  0  0  0  0  0  0  0  0  0  0  0
   24.2590   10.8550    5.2780 N   0  0  0  0  0  0  0  0  0  0  0  0
   24.7464    9.1845    8.6779 H   0  0  0  0  0  0  0  0  0  0  0  0
   23.8606    9.4192    7.1330 H   0  0  0  0  0  0  0  0  0  0  0  0
   25.4708    8.6230    7.1330 H   0  0  0  0  0  0  0  0  0  0  0  0
   25.1287   11.4469    8.1859 H   0  0  0  0  0  0  0  0  0  0  0  0
   26.6077   10.6107    7.5388 H   0  0  0  0  0  0  0  0  0  0  0  0
   26.7718   12.9750    5.8261 H   0  0  0  0  0  0  0  0  0  0  0  0
   27.5670   16.1843    2.6883 H   0  0  0  0  0  0  0  0  0  0  0  0
   27.7549   17.9184    4.7749 H   0  0  0  0  0  0  0  0  0  0  0  0
   25.0919   15.2401    7.3713 H   0  0  0  0  0  0  0  0  0  0  0  0
   23.0782   15.0850    9.0150 H   0  0  0  0  0  0  0  0  0  0  0  0
   22.4190   15.4065   11.4108 H   0  0  0  0  0  0  0  0  0  0  0  0
   26.6363   17.4915    9.6289 H   0  0  0  0  0  0  0  0  0  0  0  0
   24.4643   18.3579   15.3384 H   0  0  0  0  0  0  0  0  0  0  0  0
   26.2923   16.8733   15.9236 H   0  0  0  0  0  0  0  0  0  0  0  0
   27.4754   17.9905   15.1645 H   0  0  0  0  0  0  0  0  0  0  0  0
   25.6177   18.6124   17.5141 H   0  0  0  0  0  0  0  0  0  0  0  0
   27.4109   18.3748   17.5717 H   0  0  0  0  0  0  0  0  0  0  0  0
   26.5204   21.6572   15.2626 H   0  0  0  0  0  0  0  0  0  0  0  0
   23.9202   16.1049   13.9061 H   0  0  0  0  0  0  0  0  0  0  0  0
   23.0893   17.5807   13.4717 H   0  0  0  0  0  0  0  0  0  0  0  0
   23.6295   11.4391    3.3140 H   0  0  0  0  0  0  0  0  0  0  0  0
  1  2  1  0
  2  3  1  0
  3  4  2  0
  4  5  1  0
  5  6  1  0
  6  7  2  0
  6  8  2  0
  6  9  1  0
  9 10  2  0
 10 11  1  0
 11 12  2  0
 12 13  1  0
 13 14  2  0
 13 15  1  0
 15 16  1  0
 16 17  2  0
 17 18  1  0
 18 19  2  0
 19 20  1  0
 20 21  2  0
 20 22  1  0
 22 23  2  0
 22 24  1  0
 24 25  1  0
 25 26  1  0
 26 27  1  0
 27 28  1  0
 28 29  2  0
 28 30  1  0
 30 31  1  0
 31 32  2  0
 24 33  1  0
 12 34  1  0
  5 35  1  0
 35 36  2  0
 36  3  1  0
 34  9  1  0
 21 16  1  0
 31 25  1  0
 33 19  1  0
  1 37  1  0
  1 38  1  0
  1 39  1  0
  2 40  1  0
  2 41  1  0
  4 42  1  0
 10 43  1  0
 11 44  1  0
 15 45  1  0
 17 46  1  0
 18 47  1  0
 21 48  1  0
 25 49  1  1
 26 50  1  0
 26 51  1  0
 27 52  1  0
 27 53  1  0
 30 54  1  0
 33 55  1  0
 33 56  1  0
 35 57  1  0
M  END
>  <meeko>  (177) 
{"is_sidechain": [true], "free_energy": -13.9, "intermolecular_energy": 0.0, "internal_energy": -13.9, "cluster_size": 20, "cluster_id": 1, "rank_in_cluster": 1}

>  <_RMSD_MCS_to_ref>  (177) 
0.5414282039199643

$$$$
ligand
     RDKit          3D

 55 59  0  0  0  0  0  0  0  0999 V2000
   24.8710    9.6160    7.7820 C   0  0  0  0  0  0  0  0  0  0  0  0
   25.4240   10.9650    7.3490 C   0  0  0  0  0  0  0  0  0  0  0  0
   26.8120   11.2060    7.8300 C   0  0  0  0  0  0  0  0  0  0  0  0
   27.2400   11.8960    8.9460 C   0  0  0  0  0  0  0  0  0  0  0  0
   28.5990   11.7510    8.9340 N   0  0  0  0  0  0  0  0  0  0  0  0
   29.6670   12.5030    9.9980 S   0  0  0  0  0  6  0  0  0  0  0  0
   29.1440   12.1670   11.3120 O   0  0  0  0  0  0  0  0  0  0  0  0
   30.9980   12.0710    9.6100 O   0  0  0  0  0  0  0  0  0  0  0  0
   29.5100   14.1130    9.8210 O   0  0  0  0  0  0  0  0  0  0  0  0
   28.4080   14.5980    9.1730 C   0  0  0  0  0  0  0  0  0  0  0  0
   28.4830   14.7930    7.8020 C   0  0  0  0  0  0  0  0  0  0  0  0
   27.4460   15.2800    7.0870 N   0  0  0  0  0  0  0  0  0  0  0  0
   26.3300   15.5560    7.8050 C   0  0  0  0  0  0  0  0  0  0  0  0
   26.2490   15.3790    9.1870 C   0  0  0  0  0  0  0  0  0  0  0  0
   25.0220   15.6390    9.9440 C   0  0  0  0  0  0  0  0  0  0  0  0
   23.7590   15.2450    9.4470 C   0  0  0  0  0  0  0  0  0  0  0  0
   22.5670   15.4850   10.1600 C   0  0  0  0  0  0  0  0  0  0  0  0
   22.5990   16.1240   11.3950 C   0  0  0  0  0  0  0  0  0  0  0  0
   23.8380   16.5010   11.8770 C   0  0  0  0  0  0  0  0  0  0  0  0
   25.0290   16.2730   11.1850 C   0  0  0  0  0  0  0  0  0  0  0  0
   26.1690   16.8420   11.9660 C   0  0  0  0  0  0  0  0  0  0  0  0
   25.5310   17.2840   13.1940 N   0  0  0  0  0  0  0  0  0  0  0  0
   26.2710   18.0130   14.2140 C   0  0  2  0  0  0  0  0  0  0  0  0
   25.8090   17.7110   15.6390 C   0  0  0  0  0  0  0  0  0  0  0  0
   26.6790   18.4780   16.6220 C   0  0  0  0  0  0  0  0  0  0  0  0
   26.6580   19.9610   16.3330 C   0  0  0  0  0  0  0  0  0  0  0  0
   26.9400   20.7960   17.1880 O   0  0  0  0  0  0  0  0  0  0  0  0
   26.3950   20.3350   15.0410 N   0  0  0  0  0  0  0  0  0  0  0  0
   26.2470   19.5230   13.9400 C   0  0  0  0  0  0  0  0  0  0  0  0
   26.2110   20.0070   12.8090 O   0  0  0  0  0  0  0  0  0  0  0  0
   24.1540   17.1850   13.1350 C   0  0  0  0  0  0  0  0  0  0  0  0
   23.3300   17.5870   13.9320 O   0  0  0  0  0  0  0  0  0  0  0  0
   27.3160   14.9180    9.8980 N   0  0  0  0  0  0  0  0  0  0  0  0
   28.9610   11.0460    7.8320 C   0  0  0  0  0  0  0  0  0  0  0  0
   27.8940   10.6980    7.1380 N   0  0  0  0  0  0  0  0  0  0  0  0
   24.8497    9.5640    8.8806 H   0  0  0  0  0  0  0  0  0  0  0  0
   23.8507    9.4948    7.3893 H   0  0  0  0  0  0  0  0  0  0  0  0
   25.5127    8.8135    7.3893 H   0  0  0  0  0  0  0  0  0  0  0  0
   25.4214   11.0085    6.2499 H   0  0  0  0  0  0  0  0  0  0  0  0
   24.7827   11.7411    7.7921 H   0  0  0  0  0  0  0  0  0  0  0  0
   26.6262   12.4397    9.6793 H   0  0  0  0  0  0  0  0  0  0  0  0
   29.4181   14.5427    7.2796 H   0  0  0  0  0  0  0  0  0  0  0  0
   25.4460   15.9377    7.2731 H   0  0  0  0  0  0  0  0  0  0  0  0
   23.7045   14.7353    8.4737 H   0  0  0  0  0  0  0  0  0  0  0  0
   21.6038   15.1644    9.7363 H   0  0  0  0  0  0  0  0  0  0  0  0
   21.6780   16.3207   11.9634 H   0  0  0  0  0  0  0  0  0  0  0  0
   26.9312   16.0755   12.1695 H   0  0  0  0  0  0  0  0  0  0  0  0
   26.6993   17.6476   11.4371 H   0  0  0  0  0  0  0  0  0  0  0  0
   27.3088   17.6545   14.1470 H   0  0  0  0  0  0  0  0  0  0  0  0
   24.7599   18.0195   15.7584 H   0  0  0  0  0  0  0  0  0  0  0  0
   25.8959   16.6319   15.8338 H   0  0  0  0  0  0  0  0  0  0  0  0
   26.3041   18.3064   17.6418 H   0  0  0  0  0  0  0  0  0  0  0  0
   27.7142   18.1196   16.5223 H   0  0  0  0  0  0  0  0  0  0  0  0
   26.2961   21.3465   14.8739 H   0  0  0  0  0  0  0  0  0  0  0  0
   29.9971   10.7997    7.5565 H   0  0  0  0  0  0  0  0  0  0  0  0
  1  2  1  0
  2  3  1  0
  3  4  2  0
  4  5  1  0
  5  6  1  0
  6  7  2  0
  6  8  2  0
  6  9  1  0
  9 10  1  0
 10 11  2  0
 11 12  1  0
 12 13  2  0
 13 14  1  0
 14 15  1  0
 15 16  2  0
 16 17  1  0
 17 18  2  0
 18 19  1  0
 19 20  2  0
 20 21  1  0
 21 22  1  0
 22 23  1  0
 23 24  1  0
 24 25  1  0
 25 26  1  0
 26 27  2  0
 26 28  1  0
 28 29  1  0
 29 30  2  0
 22 31  1  0
 31 32  2  0
 14 33  2  0
  5 34  1  0
 34 35  2  0
 35  3  1  0
 33 10  1  0
 20 15  1  0
 29 23  1  0
 31 19  1  0
  1 36  1  0
  1 37  1  0
  1 38  1  0
  2 39  1  0
  2 40  1  0
  4 41  1  0
 11 42  1  0
 13 43  1  0
 16 44  1  0
 17 45  1  0
 18 46  1  0
 21 47  1  0
 21 48  1  0
 23 49  1  1
 24 50  1  0
 24 51  1  0
 25 52  1  0
 25 53  1  0
 28 54  1  0
 34 55  1  0
M  END
>  <meeko>  (178) 
{"is_sidechain": [true], "free_energy": -13.9, "intermolecular_energy": 0.0, "internal_energy": -13.9, "cluster_size": 17, "cluster_id": 1, "rank_in_cluster": 1}

>  <_RMSD_MCS_to_ref>  (178) 
1.108045651887442

$$$$
ligand
     RDKit          3D

 61 66  0  0  0  0  0  0  0  0999 V2000
   24.8710    9.6160    7.7820 C   0  0  0  0  0  0  0  0  0  0  0  0
   25.4240   10.9650    7.3490 C   0  0  0  0  0  0  0  0  0  0  0  0
   25.0060   11.3270    5.9680 C   0  0  0  0  0  0  0  0  0  0  0  0
   24.1460   12.3250    5.5550 C   0  0  0  0  0  0  0  0  0  0  0  0
   24.1130   12.1990    4.1960 N   0  0  0  0  0  0  0  0  0  0  0  0
   23.4530   13.3210    3.1190 S   0  0  0  0  0  6  0  0  0  0  0  0
   22.0250   13.2790    3.3800 O   0  0  0  0  0  0  0  0  0  0  0  0
   23.9820   12.9240    1.8250 O   0  0  0  0  0  0  0  0  0  0  0  0
   24.0960   14.8780    3.5710 C   0  0  0  0  0  0  0  0  0  0  0  0
   24.0490   16.0240    2.6690 C   0  0  0  0  0  0  0  0  0  0  0  0
   24.5530   17.2180    3.0330 C   0  0  0  0  0  0  0  0  0  0  0  0
   25.1460   17.3780    4.3170 C   0  0  0  0  0  0  0  0  0  0  0  0
   25.6910   18.4300    4.8820 N   0  0  0  0  0  0  0  0  0  0  0  0
   26.1070   18.0020    6.1130 C   0  0  0  0  0  0  0  0  0  0  0  0
   25.7960   16.6710    6.3320 C   0  0  0  0  0  0  0  0  0  0  0  0
   26.0760   15.8260    7.4710 C   0  0  0  0  0  0  0  0  0  0  0  0
   26.8030   14.8360    7.4080 O   0  0  0  0  0  0  0  0  0  0  0  0
   25.4920   16.1500    8.8020 C   0  0  0  0  0  0  0  0  0  0  0  0
   24.1650   15.7830    9.1290 C   0  0  0  0  0  0  0  0  0  0  0  0
   23.6380   16.0800   10.3890 C   0  0  0  0  0  0  0  0  0  0  0  0
   24.4650   16.7220   11.2910 C   0  0  0  0  0  0  0  0  0  0  0  0
   25.7800   17.0730   10.9940 C   0  0  0  0  0  0  0  0  0  0  0  0
   26.3130   16.7890    9.7480 C   0  0  0  0  0  0  0  0  0  0  0  0
   26.4050   17.7550   12.1660 C   0  0  0  0  0  0  0  0  0  0  0  0
   25.3550   17.6770   13.1750 N   0  0  0  0  0  0  0  0  0  0  0  0
   25.3800   18.4360   14.4190 C   0  0  1  0  0  0  0  0  0  0  0  0
   26.2780   17.8000   15.4750 C   0  0  0  0  0  0  0  0  0  0  0  0
   26.1830   18.5990   16.7660 C   0  0  0  0  0  0  0  0  0  0  0  0
   26.5240   20.0530   16.5340 C   0  0  0  0  0  0  0  0  0  0  0  0
   27.1270   20.7270   17.3630 O   0  0  0  0  0  0  0  0  0  0  0  0
   26.1090   20.5980   15.3460 N   0  0  0  0  0  0  0  0  0  0  0  0
   25.8210   19.8930   14.1990 C   0  0  0  0  0  0  0  0  0  0  0  0
   25.9350   20.4260   13.0970 O   0  0  0  0  0  0  0  0  0  0  0  0
   24.1780   17.1470   12.6650 C   0  0  0  0  0  0  0  0  0  0  0  0
   23.1010   17.0430   13.2170 O   0  0  0  0  0  0  0  0  0  0  0  0
   25.1780   16.2660    5.1590 N   0  0  0  0  0  0  0  0  0  0  0  0
   24.6470   15.0260    4.7910 C   0  0  0  0  0  0  0  0  0  0  0  0
   24.9630   11.2090    3.8210 C   0  0  0  0  0  0  0  0  0  0  0  0
   25.5120   10.6470    4.8780 N   0  0  0  0  0  0  0  0  0  0  0  0
   24.8497    9.5640    8.8806 H   0  0  0  0  0  0  0  0  0  0  0  0
   23.8507    9.4948    7.3893 H   0  0  0  0  0  0  0  0  0  0  0  0
   25.5127    8.8135    7.3893 H   0  0  0  0  0  0  0  0  0  0  0  0
   25.0594   11.7366    8.0431 H   0  0  0  0  0  0  0  0  0  0  0  0
   26.5220   10.9000    7.3632 H   0  0  0  0  0  0  0  0  0  0  0  0
   23.6096   13.0552    6.1788 H   0  0  0  0  0  0  0  0  0  0  0  0
   23.5937   15.9103    1.6741 H   0  0  0  0  0  0  0  0  0  0  0  0
   24.5066   18.0697    2.3384 H   0  0  0  0  0  0  0  0  0  0  0  0
   26.6272   18.6401    6.8426 H   0  0  0  0  0  0  0  0  0  0  0  0
   23.5440   15.2604    8.3865 H   0  0  0  0  0  0  0  0  0  0  0  0
   22.6040   15.8128   10.6527 H   0  0  0  0  0  0  0  0  0  0  0  0
   27.3519   17.0564    9.5045 H   0  0  0  0  0  0  0  0  0  0  0  0
   27.3124   17.2275   12.4952 H   0  0  0  0  0  0  0  0  0  0  0  0
   26.7310   18.7835   11.9517 H   0  0  0  0  0  0  0  0  0  0  0  0
   24.3432   18.4245   14.7864 H   0  0  0  0  0  0  0  0  0  0  0  0
   25.9526   16.7654   15.6588 H   0  0  0  0  0  0  0  0  0  0  0  0
   27.3190   17.7981   15.1196 H   0  0  0  0  0  0  0  0  0  0  0  0
   25.1572   18.5288   17.1570 H   0  0  0  0  0  0  0  0  0  0  0  0
   26.9018   18.1830   17.4873 H   0  0  0  0  0  0  0  0  0  0  0  0
   26.0038   21.6219   15.3086 H   0  0  0  0  0  0  0  0  0  0  0  0
   24.6790   14.1787    5.4918 H   0  0  0  0  0  0  0  0  0  0  0  0
   25.1649   10.9171    2.7798 H   0  0  0  0  0  0  0  0  0  0  0  0
  1  2  1  0
  2  3  1  0
  3  4  2  0
  4  5  1  0
  5  6  1  0
  6  7  2  0
  6  8  2  0
  6  9  1  0
  9 10  1  0
 10 11  2  0
 11 12  1  0
 12 13  2  0
 13 14  1  0
 14 15  2  0
 15 16  1  0
 16 17  2  0
 16 18  1  0
 18 19  2  0
 19 20  1  0
 20 21  2  0
 21 22  1  0
 22 23  2  0
 22 24  1  0
 24 25  1  0
 25 26  1  0
 26 27  1  0
 27 28  1  0
 28 29  1  0
 29 30  2  0
 29 31  1  0
 31 32  1  0
 32 33  2  0
 25 34  1  0
 34 35  2  0
 15 36  1  0
 36 37  1  0
  5 38  1  0
 38 39  2  0
 39  3  1  0
 37  9  2  0
 36 12  1  0
 23 18  1  0
 32 26  1  0
 34 21  1  0
  1 40  1  0
  1 41  1  0
  1 42  1  0
  2 43  1  0
  2 44  1  0
  4 45  1  0
 10 46  1  0
 11 47  1  0
 14 48  1  0
 19 49  1  0
 20 50  1  0
 23 51  1  0
 24 52  1  0
 24 53  1  0
 26 54  1  1
 27 55  1  0
 27 56  1  0
 28 57  1  0
 28 58  1  0
 31 59  1  0
 37 60  1  0
 38 61  1  0
M  END
>  <meeko>  (179) 
{"is_sidechain": [true], "free_energy": -13.9, "intermolecular_energy": 0.0, "internal_energy": -13.9, "cluster_size": 13, "cluster_id": 1, "rank_in_cluster": 1}

>  <_RMSD_MCS_to_ref>  (179) 
0.704297447629084

$$$$
ligand
     RDKit          3D

 59 64  0  0  0  0  0  0  0  0999 V2000
   24.8710    9.6160    7.7820 C   0  0  0  0  0  0  0  0  0  0  0  0
   25.4240   10.9650    7.3490 C   0  0  0  0  0  0  0  0  0  0  0  0
   26.7630   11.2400    7.9380 C   0  0  0  0  0  0  0  0  0  0  0  0
   28.0000   11.2300    7.3280 C   0  0  0  0  0  0  0  0  0  0  0  0
   28.8760   11.5160    8.3370 N   0  0  0  0  0  0  0  0  0  0  0  0
   30.5070   11.8930    8.1480 S   0  0  0  0  0  6  0  0  0  0  0  0
   31.0100   12.0470    9.4990 O   0  0  0  0  0  0  0  0  0  0  0  0
   31.0210   10.8730    7.2520 O   0  0  0  0  0  0  0  0  0  0  0  0
   30.5450   13.3460    7.3900 O   0  0  0  0  0  0  0  0  0  0  0  0
   29.4440   14.0660    7.1760 C   0  0  0  0  0  0  0  0  0  0  0  0
   28.4710   14.5980    8.0030 C   0  0  0  0  0  0  0  0  0  0  0  0
   27.5280   15.2930    7.1910 C   0  0  0  0  0  0  0  0  0  0  0  0
   26.3470   16.0290    7.3690 C   0  0  0  0  0  0  0  0  0  0  0  0
   25.7500   16.3030    8.6810 C   0  0  0  0  0  0  0  0  0  0  0  0
   24.4240   15.9030    8.9950 C   0  0  0  0  0  0  0  0  0  0  0  0
   23.8540   16.1610   10.2460 C   0  0  0  0  0  0  0  0  0  0  0  0
   24.6370   16.8090   11.1790 C   0  0  0  0  0  0  0  0  0  0  0  0
   25.9440   17.2050   10.9150 C   0  0  0  0  0  0  0  0  0  0  0  0
   26.5110   16.9560    9.6760 C   0  0  0  0  0  0  0  0  0  0  0  0
   26.5240   17.8850   12.1090 C   0  0  0  0  0  0  0  0  0  0  0  0
   25.4590   17.7540   13.0970 N   0  0  0  0  0  0  0  0  0  0  0  0
   25.4440   18.4760   14.3640 C   0  0  1  0  0  0  0  0  0  0  0  0
   26.3630   17.8440   15.4050 C   0  0  0  0  0  0  0  0  0  0  0  0
   26.2240   18.5930   16.7220 C   0  0  0  0  0  0  0  0  0  0  0  0
   26.5030   20.0680   16.5420 C   0  0  0  0  0  0  0  0  0  0  0  0
   27.0650   20.7400   17.4010 O   0  0  0  0  0  0  0  0  0  0  0  0
   26.0760   20.6330   15.3670 N   0  0  0  0  0  0  0  0  0  0  0  0
   25.8240   19.9580   14.1950 C   0  0  0  0  0  0  0  0  0  0  0  0
   25.9170   20.5350   13.1150 O   0  0  0  0  0  0  0  0  0  0  0  0
   24.3100   17.1990   12.5550 C   0  0  0  0  0  0  0  0  0  0  0  0
   23.2270   17.0490   13.0870 O   0  0  0  0  0  0  0  0  0  0  0  0
   25.6940   16.4980    6.2720 N   0  0  0  0  0  0  0  0  0  0  0  0
   26.2310   16.2660    5.0590 C   0  0  0  0  0  0  0  0  0  0  0  0
   27.3600   15.5980    4.7720 N   0  0  0  0  0  0  0  0  0  0  0  0
   27.9530   15.1340    5.8810 C   0  0  0  0  0  0  0  0  0  0  0  0
   29.1080   14.4050    5.8900 N   0  0  0  0  0  0  0  0  0  0  0  0
   28.1750   11.7650    9.4730 C   0  0  0  0  0  0  0  0  0  0  0  0
   26.8870   11.5820    9.2710 N   0  0  0  0  0  0  0  0  0  0  0  0
   24.8497    9.5640    8.8806 H   0  0  0  0  0  0  0  0  0  0  0  0
   23.8507    9.4948    7.3893 H   0  0  0  0  0  0  0  0  0  0  0  0
   25.5127    8.8135    7.3893 H   0  0  0  0  0  0  0  0  0  0  0  0
   25.5103   10.9768    6.2525 H   0  0  0  0  0  0  0  0  0  0  0  0
   24.7326   11.7430    7.7050 H   0  0  0  0  0  0  0  0  0  0  0  0
   28.2293   11.0359    6.2698 H   0  0  0  0  0  0  0  0  0  0  0  0
   28.4318   14.5014    9.0980 H   0  0  0  0  0  0  0  0  0  0  0  0
   23.8294   15.3762    8.2341 H   0  0  0  0  0  0  0  0  0  0  0  0
   22.8218   15.8590   10.4769 H   0  0  0  0  0  0  0  0  0  0  0  0
   27.5462   17.2645    9.4684 H   0  0  0  0  0  0  0  0  0  0  0  0
   27.4424   17.3818   12.4457 H   0  0  0  0  0  0  0  0  0  0  0  0
   26.8193   18.9274   11.9189 H   0  0  0  0  0  0  0  0  0  0  0  0
   24.4058   18.4114   14.7218 H   0  0  0  0  0  0  0  0  0  0  0  0
   26.0829   16.7903   15.5506 H   0  0  0  0  0  0  0  0  0  0  0  0
   27.4053   17.9005   15.0581 H   0  0  0  0  0  0  0  0  0  0  0  0
   25.1995   18.4650   17.1016 H   0  0  0  0  0  0  0  0  0  0  0  0
   26.9548   18.1839   17.4351 H   0  0  0  0  0  0  0  0  0  0  0  0
   25.9313   21.6528   15.3618 H   0  0  0  0  0  0  0  0  0  0  0  0
   25.6780   16.6728    4.1995 H   0  0  0  0  0  0  0  0  0  0  0  0
   29.6486   14.1470    5.0521 H   0  0  0  0  0  0  0  0  0  0  0  0
   28.6212   12.0763   10.4290 H   0  0  0  0  0  0  0  0  0  0  0  0
  1  2  1  0
  2  3  1  0
  3  4  2  0
  4  5  1  0
  5  6  1  0
  6  7  2  0
  6  8  2  0
  6  9  1  0
  9 10  1  0
 10 11  2  0
 11 12  1  0
 12 13  2  0
 13 14  1  0
 14 15  2  0
 15 16  1  0
 16 17  2  0
 17 18  1  0
 18 19  2  0
 18 20  1  0
 20 21  1  0
 21 22  1  0
 22 23  1  0
 23 24  1  0
 24 25  1  0
 25 26  2  0
 25 27  1  0
 27 28  1  0
 28 29  2  0
 21 30  1  0
 30 31  2  0
 13 32  1  0
 32 33  2  0
 33 34  1  0
 34 35  2  0
 35 36  1  0
  5 37  1  0
 37 38  2  0
 38  3  1  0
 36 10  1  0
 35 12  1  0
 19 14  1  0
 28 22  1  0
 30 17  1  0
  1 39  1  0
  1 40  1  0
  1 41  1  0
  2 42  1  0
  2 43  1  0
  4 44  1  0
 11 45  1  0
 15 46  1  0
 16 47  1  0
 19 48  1  0
 20 49  1  0
 20 50  1  0
 22 51  1  1
 23 52  1  0
 23 53  1  0
 24 54  1  0
 24 55  1  0
 27 56  1  0
 33 57  1  0
 36 58  1  0
 37 59  1  0
M  END
>  <meeko>  (180) 
{"is_sidechain": [true], "free_energy": -13.89, "intermolecular_energy": 0.0, "internal_energy": -13.89, "cluster_size": 19, "cluster_id": 1, "rank_in_cluster": 1}

>  <_RMSD_MCS_to_ref>  (180) 
0.8401116467157026

$$$$
ligand
     RDKit          3D

 57 61  0  0  0  0  0  0  0  0999 V2000
   24.8540    9.4020    7.6050 C   0  0  0  0  0  0  0  0  0  0  0  0
   25.5230   10.7550    7.4270 C   0  0  0  0  0  0  0  0  0  0  0  0
   27.0030   10.6700    7.5490 C   0  0  0  0  0  0  0  0  0  0  0  0
   27.9350   11.6880    7.5020 C   0  0  0  0  0  0  0  0  0  0  0  0
   29.1320   11.0520    7.6450 N   0  0  0  0  0  0  0  0  0  0  0  0
   30.6560   11.7400    7.5690 S   0  0  0  0  0  6  0  0  0  0  0  0
   31.6100   10.7520    8.0240 O   0  0  0  0  0  0  0  0  0  0  0  0
   30.7410   12.3660    6.2620 O   0  0  0  0  0  0  0  0  0  0  0  0
   30.7970   13.0830    8.6830 C   0  0  0  0  0  0  0  0  0  0  0  0
   31.7940   13.0820    9.6180 N   0  0  0  0  0  0  0  0  0  0  0  0
   31.8090   14.1770   10.3940 N   0  0  0  0  0  0  0  0  0  0  0  0
   30.7640   14.8820    9.9600 C   0  0  0  0  0  0  0  0  0  0  0  0
   30.0660   14.2370    8.9180 C   0  0  0  0  0  0  0  0  0  0  0  0
   28.9030   14.6420    8.1580 C   0  0  0  0  0  0  0  0  0  0  0  0
   28.8860   14.4780    6.9410 O   0  0  0  0  0  0  0  0  0  0  0  0
   27.8330   15.1910    8.8330 N   0  0  0  0  0  0  0  0  0  0  0  0
   26.4840   14.5980    8.6140 C   0  0  0  0  0  0  0  0  0  0  0  0
   25.7580   15.2880    9.6710 C   0  0  0  0  0  0  0  0  0  0  0  0
   24.4980   15.3280   10.1440 N   0  0  0  0  0  0  0  0  0  0  0  0
   24.3910   16.1780   11.1990 N   0  0  0  0  0  0  0  0  0  0  0  0
   25.6470   16.6700   11.3790 C   0  0  0  0  0  0  0  0  0  0  0  0
   25.9770   17.6310   12.4380 C   0  0  0  0  0  0  0  0  0  0  0  0
   27.0520   18.2210   12.4870 O   0  0  0  0  0  0  0  0  0  0  0  0
   24.9770   17.7960   13.3650 N   0  0  0  0  0  0  0  0  0  0  0  0
   25.1560   18.5590   14.5830 C   0  0  1  0  0  0  0  0  0  0  0  0
   26.1710   17.9100   15.5170 C   0  0  0  0  0  0  0  0  0  0  0  0
   26.3320   18.7630   16.7670 C   0  0  0  0  0  0  0  0  0  0  0  0
   26.7210   20.1790   16.4160 C   0  0  0  0  0  0  0  0  0  0  0  0
   27.4450   20.8610   17.1360 O   0  0  0  0  0  0  0  0  0  0  0  0
   26.1940   20.6920   15.2580 N   0  0  0  0  0  0  0  0  0  0  0  0
   25.6310   19.9730   14.2300 C   0  0  0  0  0  0  0  0  0  0  0  0
   25.5070   20.4680   13.1110 O   0  0  0  0  0  0  0  0  0  0  0  0
   26.5150   16.1200   10.4320 C   0  0  0  0  0  0  0  0  0  0  0  0
   27.9100   16.1370    9.9960 C   0  0  0  0  0  0  0  0  0  0  0  0
   28.9170    9.7170    7.7670 C   0  0  0  0  0  0  0  0  0  0  0  0
   27.6280    9.4500    7.7200 N   0  0  0  0  0  0  0  0  0  0  0  0
   24.7464    9.1845    8.6779 H   0  0  0  0  0  0  0  0  0  0  0  0
   23.8606    9.4192    7.1330 H   0  0  0  0  0  0  0  0  0  0  0  0
   25.4708    8.6230    7.1330 H   0  0  0  0  0  0  0  0  0  0  0  0
   25.2715   11.1462    6.4301 H   0  0  0  0  0  0  0  0  0  0  0  0
   25.1561   11.4205    8.2223 H   0  0  0  0  0  0  0  0  0  0  0  0
   27.7530   12.7657    7.3776 H   0  0  0  0  0  0  0  0  0  0  0  0
   32.4711   12.3122    9.7178 H   0  0  0  0  0  0  0  0  0  0  0  0
   30.4771   15.8614   10.3705 H   0  0  0  0  0  0  0  0  0  0  0  0
   26.0857   14.8361    7.6167 H   0  0  0  0  0  0  0  0  0  0  0  0
   26.4388   13.4995    8.6481 H   0  0  0  0  0  0  0  0  0  0  0  0
   23.7147   14.7835    9.7556 H   0  0  0  0  0  0  0  0  0  0  0  0
   24.0616   17.3589   13.1865 H   0  0  0  0  0  0  0  0  0  0  0  0
   24.1878   18.5932   15.1040 H   0  0  0  0  0  0  0  0  0  0  0  0
   25.8187   16.9073   15.8008 H   0  0  0  0  0  0  0  0  0  0  0  0
   27.1402   17.8277   15.0032 H   0  0  0  0  0  0  0  0  0  0  0  0
   25.3789   18.7784   17.3159 H   0  0  0  0  0  0  0  0  0  0  0  0
   27.1295   18.3262   17.3861 H   0  0  0  0  0  0  0  0  0  0  0  0
   26.2229   21.7157   15.1478 H   0  0  0  0  0  0  0  0  0  0  0  0
   28.2275   17.1427    9.6834 H   0  0  0  0  0  0  0  0  0  0  0  0
   28.6402   15.8595   10.7705 H   0  0  0  0  0  0  0  0  0  0  0  0
   29.7090    8.9633    7.8882 H   0  0  0  0  0  0  0  0  0  0  0  0
  1  2  1  0
  2  3  1  0
  3  4  2  0
  4  5  1  0
  5  6  1  0
  6  7  2  0
  6  8  2  0
  6  9  1  0
  9 10  1  0
 10 11  1  0
 11 12  2  0
 12 13  1  0
 13 14  1  0
 14 15  2  0
 14 16  1  0
 16 17  1  0
 17 18  1  0
 18 19  1  0
 19 20  1  0
 20 21  2  0
 21 22  1  0
 22 23  2  0
 22 24  1  0
 24 25  1  0
 25 26  1  0
 26 27  1  0
 27 28  1  0
 28 29  2  0
 28 30  1  0
 30 31  1  0
 31 32  2  0
 21 33  1  0
 33 34  1  0
  5 35  1  0
 35 36  2  0
 36  3  1  0
 13  9  2  0
 34 16  1  0
 33 18  2  0
 31 25  1  0
  1 37  1  0
  1 38  1  0
  1 39  1  0
  2 40  1  0
  2 41  1  0
  4 42  1  0
 10 43  1  0
 12 44  1  0
 17 45  1  0
 17 46  1  0
 19 47  1  0
 24 48  1  0
 25 49  1  1
 26 50  1  0
 26 51  1  0
 27 52  1  0
 27 53  1  0
 30 54  1  0
 34 55  1  0
 34 56  1  0
 35 57  1  0
M  END
>  <meeko>  (181) 
{"is_sidechain": [true], "free_energy": -13.87, "intermolecular_energy": 0.0, "internal_energy": -13.87, "cluster_size": 16, "cluster_id": 1, "rank_in_cluster": 1}

>  <_RMSD_MCS_to_ref>  (181) 
0.5143236119193609

$$$$
ligand
     RDKit          3D

 58 62  0  0  0  0  0  0  0  0999 V2000
   24.8540    9.4020    7.6050 C   0  0  0  0  0  0  0  0  0  0  0  0
   25.5230   10.7550    7.4270 C   0  0  0  0  0  0  0  0  0  0  0  0
   27.0090   10.6500    7.4190 C   0  0  0  0  0  0  0  0  0  0  0  0
   27.9390   11.5580    6.9500 C   0  0  0  0  0  0  0  0  0  0  0  0
   29.1420   10.9550    7.1850 N   0  0  0  0  0  0  0  0  0  0  0  0
   30.6420   11.5200    6.6610 S   0  0  0  0  0  6  0  0  0  0  0  0
   31.5250   10.3900    6.9070 O   0  0  0  0  0  0  0  0  0  0  0  0
   30.4120   11.9770    5.3020 O   0  0  0  0  0  0  0  0  0  0  0  0
   31.1750   12.8510    7.6110 C   0  0  0  0  0  0  0  0  0  0  0  0
   32.4790   13.1790    7.5450 C   0  0  0  0  0  0  0  0  0  0  0  0
   32.9910   14.3380    8.3230 C   0  0  0  0  0  0  0  0  0  0  0  0
   34.1760   14.6400    8.2760 O   0  0  0  0  0  0  0  0  0  0  0  0
   32.0800   15.0360    9.0800 N   0  0  0  0  0  0  0  0  0  0  0  0
   30.7500   14.6730    9.1130 C   0  0  0  0  0  0  0  0  0  0  0  0
   29.6880   15.2070    9.7870 C   0  0  0  0  0  0  0  0  0  0  0  0
   28.5890   14.3870    9.4300 C   0  0  0  0  0  0  0  0  0  0  0  0
   27.2000   14.5230    9.9170 C   0  0  0  0  0  0  0  0  0  0  0  0
   26.3490   13.6950    9.6120 O   0  0  0  0  0  0  0  0  0  0  0  0
   27.0200   15.6470   10.6990 N   0  0  0  0  0  0  0  0  0  0  0  0
   25.8360   16.0980   11.3130 C   0  0  0  0  0  0  0  0  0  0  0  0
   24.5540   15.8200   10.8400 C   0  0  0  0  0  0  0  0  0  0  0  0
   23.4330   16.3170   11.5100 C   0  0  0  0  0  0  0  0  0  0  0  0
   23.5810   17.0940   12.6590 C   0  0  0  0  0  0  0  0  0  0  0  0
   24.8580   17.3850   13.1540 C   0  0  0  0  0  0  0  0  0  0  0  0
   25.0200   18.2160   14.4160 C   0  0  1  0  0  0  0  0  0  0  0  0
   26.1220   17.6310   15.3080 C   0  0  0  0  0  0  0  0  0  0  0  0
   26.2450   18.4530   16.5810 C   0  0  0  0  0  0  0  0  0  0  0  0
   26.5170   19.9020   16.2650 C   0  0  0  0  0  0  0  0  0  0  0  0
   27.0590   20.6580   17.0670 O   0  0  0  0  0  0  0  0  0  0  0  0
   26.0570   20.3620   15.0580 N   0  0  0  0  0  0  0  0  0  0  0  0
   25.2880   19.6940   14.1320 C   0  0  0  0  0  0  0  0  0  0  0  0
   24.8020   20.3120   13.1860 O   0  0  0  0  0  0  0  0  0  0  0  0
   25.9750   16.8760   12.4690 C   0  0  0  0  0  0  0  0  0  0  0  0
   28.9600   13.4230    8.5640 N   0  0  0  0  0  0  0  0  0  0  0  0
   30.2910   13.5880    8.3790 N   0  0  0  0  0  0  0  0  0  0  0  0
   28.9310    9.7460    7.7680 C   0  0  0  0  0  0  0  0  0  0  0  0
   27.6410    9.5240    7.9140 N   0  0  0  0  0  0  0  0  0  0  0  0
   24.7464    9.1845    8.6779 H   0  0  0  0  0  0  0  0  0  0  0  0
   23.8606    9.4192    7.1330 H   0  0  0  0  0  0  0  0  0  0  0  0
   25.4708    8.6230    7.1330 H   0  0  0  0  0  0  0  0  0  0  0  0
   25.1933   11.1906    6.4723 H   0  0  0  0  0  0  0  0  0  0  0  0
   25.2334   11.3900    8.2773 H   0  0  0  0  0  0  0  0  0  0  0  0
   27.7532   12.5409    6.4924 H   0  0  0  0  0  0  0  0  0  0  0  0
   33.1642   12.5908    6.9169 H   0  0  0  0  0  0  0  0  0  0  0  0
   32.3968   15.8452    9.6329 H   0  0  0  0  0  0  0  0  0  0  0  0
   29.6866   16.0791   10.4574 H   0  0  0  0  0  0  0  0  0  0  0  0
   27.8566   16.2280   10.8522 H   0  0  0  0  0  0  0  0  0  0  0  0
   24.4247   15.2070    9.9358 H   0  0  0  0  0  0  0  0  0  0  0  0
   22.4258   16.0937   11.1283 H   0  0  0  0  0  0  0  0  0  0  0  0
   22.6911   17.4795   13.1781 H   0  0  0  0  0  0  0  0  0  0  0  0
   24.0579   18.1689   14.9472 H   0  0  0  0  0  0  0  0  0  0  0  0
   25.8691   16.5923   15.5671 H   0  0  0  0  0  0  0  0  0  0  0  0
   27.0790   17.6555   14.7661 H   0  0  0  0  0  0  0  0  0  0  0  0
   25.3059   18.3789   17.1490 H   0  0  0  0  0  0  0  0  0  0  0  0
   27.0852   18.0597   17.1720 H   0  0  0  0  0  0  0  0  0  0  0  0
   26.3195   21.3276   14.8137 H   0  0  0  0  0  0  0  0  0  0  0  0
   26.9834   17.0943   12.8505 H   0  0  0  0  0  0  0  0  0  0  0  0
   29.7259    9.0503    8.0749 H   0  0  0  0  0  0  0  0  0  0  0  0
  1  2  1  0
  2  3  1  0
  3  4  2  0
  4  5  1  0
  5  6  1  0
  6  7  2  0
  6  8  2  0
  6  9  1  0
  9 10  2  0
 10 11  1  0
 11 12  2  0
 11 13  1  0
 13 14  1  0
 14 15  2  0
 15 16  1  0
 16 17  1  0
 17 18  2  0
 17 19  1  0
 19 20  1  0
 20 21  2  0
 21 22  1  0
 22 23  2  0
 23 24  1  0
 24 25  1  0
 25 26  1  0
 26 27  1  0
 27 28  1  0
 28 29  2  0
 28 30  1  0
 30 31  1  0
 31 32  2  0
 24 33  2  0
 16 34  2  0
 34 35  1  0
  5 36  1  0
 36 37  2  0
 37  3  1  0
 35  9  1  0
 35 14  1  0
 33 20  1  0
 31 25  1  0
  1 38  1  0
  1 39  1  0
  1 40  1  0
  2 41  1  0
  2 42  1  0
  4 43  1  0
 10 44  1  0
 13 45  1  0
 15 46  1  0
 19 47  1  0
 21 48  1  0
 22 49  1  0
 23 50  1  0
 25 51  1  1
 26 52  1  0
 26 53  1  0
 27 54  1  0
 27 55  1  0
 30 56  1  0
 33 57  1  0
 36 58  1  0
M  END
>  <meeko>  (182) 
{"is_sidechain": [true], "free_energy": -13.87, "intermolecular_energy": 0.0, "internal_energy": -13.87, "cluster_size": 12, "cluster_id": 1, "rank_in_cluster": 1}

>  <_RMSD_MCS_to_ref>  (182) 
0.44822776018448424

$$$$
ligand
     RDKit          3D

 60 65  0  0  0  0  0  0  0  0999 V2000
   24.8710    9.6160    7.7820 C   0  0  0  0  0  0  0  0  0  0  0  0
   25.4240   10.9650    7.3490 C   0  0  0  0  0  0  0  0  0  0  0  0
   26.8680   11.1130    7.6750 C   0  0  0  0  0  0  0  0  0  0  0  0
   27.4680   11.9300    8.6140 C   0  0  0  0  0  0  0  0  0  0  0  0
   28.7980   11.6410    8.5060 N   0  0  0  0  0  0  0  0  0  0  0  0
   30.0530   12.4930    9.2400 S   0  0  0  0  0  6  0  0  0  0  0  0
   31.2170   11.6370    9.0990 O   0  0  0  0  0  0  0  0  0  0  0  0
   29.5370   12.8600   10.5460 O   0  0  0  0  0  0  0  0  0  0  0  0
   30.2650   13.8380    8.3480 O   0  0  0  0  0  0  0  0  0  0  0  0
   29.3340   14.2430    7.4980 C   0  0  0  0  0  0  0  0  0  0  0  0
   29.1770   14.2750    6.1310 C   0  0  0  0  0  0  0  0  0  0  0  0
   27.9040   14.8580    5.8850 C   0  0  0  0  0  0  0  0  0  0  0  0
   27.1620   15.1730    4.7350 C   0  0  0  0  0  0  0  0  0  0  0  0
   25.9030   15.7620    4.8890 C   0  0  0  0  0  0  0  0  0  0  0  0
   25.3890   16.0360    6.1610 C   0  0  0  0  0  0  0  0  0  0  0  0
   26.1030   15.7330    7.3380 C   0  0  0  0  0  0  0  0  0  0  0  0
   25.5770   16.0160    8.6790 C   0  0  0  0  0  0  0  0  0  0  0  0
   24.3220   15.4990    9.0900 C   0  0  0  0  0  0  0  0  0  0  0  0
   23.7950   15.7660   10.3580 C   0  0  0  0  0  0  0  0  0  0  0  0
   24.5500   16.5520   11.2030 C   0  0  0  0  0  0  0  0  0  0  0  0
   25.7840   17.0760   10.8360 C   0  0  0  0  0  0  0  0  0  0  0  0
   26.3080   16.8200    9.5790 C   0  0  0  0  0  0  0  0  0  0  0  0
   26.3400   17.8950   11.9520 C   0  0  0  0  0  0  0  0  0  0  0  0
   25.3650   17.6940   13.0150 N   0  0  0  0  0  0  0  0  0  0  0  0
   25.4000   18.4920   14.2350 C   0  0  2  0  0  0  0  0  0  0  0  0
   26.0280   19.8730   14.0510 C   0  0  0  0  0  0  0  0  0  0  0  0
   25.9570   20.6390   15.3630 C   0  0  0  0  0  0  0  0  0  0  0  0
   26.6280   19.8760   16.4800 C   0  0  0  0  0  0  0  0  0  0  0  0
   27.0540   20.4320   17.4880 O   0  0  0  0  0  0  0  0  0  0  0  0
   26.6660   18.5100   16.3580 N   0  0  0  0  0  0  0  0  0  0  0  0
   26.0920   17.7320   15.3790 C   0  0  0  0  0  0  0  0  0  0  0  0
   26.0580   16.5090   15.4980 O   0  0  0  0  0  0  0  0  0  0  0  0
   24.2540   16.9920   12.5710 C   0  0  0  0  0  0  0  0  0  0  0  0
   23.2110   16.7760   13.1580 O   0  0  0  0  0  0  0  0  0  0  0  0
   27.3610   15.1420    7.1340 C   0  0  0  0  0  0  0  0  0  0  0  0
   28.2410   14.7670    8.1110 O   0  0  0  0  0  0  0  0  0  0  0  0
   28.9810   10.7560    7.4930 C   0  0  0  0  0  0  0  0  0  0  0  0
   27.8230   10.3910    6.9860 N   0  0  0  0  0  0  0  0  0  0  0  0
   24.8497    9.5640    8.8806 H   0  0  0  0  0  0  0  0  0  0  0  0
   23.8507    9.4948    7.3893 H   0  0  0  0  0  0  0  0  0  0  0  0
   25.5127    8.8135    7.3893 H   0  0  0  0  0  0  0  0  0  0  0  0
   25.2943   11.0682    6.2616 H   0  0  0  0  0  0  0  0  0  0  0  0
   24.8736   11.7457    7.8945 H   0  0  0  0  0  0  0  0  0  0  0  0
   26.9850   12.6483    9.2927 H   0  0  0  0  0  0  0  0  0  0  0  0
   29.8951   13.9195    5.3773 H   0  0  0  0  0  0  0  0  0  0  0  0
   27.5632   14.9607    3.7330 H   0  0  0  0  0  0  0  0  0  0  0  0
   25.3088   16.0132    3.9980 H   0  0  0  0  0  0  0  0  0  0  0  0
   24.3964   16.5026    6.2453 H   0  0  0  0  0  0  0  0  0  0  0  0
   23.7475   14.8712    8.3930 H   0  0  0  0  0  0  0  0  0  0  0  0
   22.8186   15.3655   10.6683 H   0  0  0  0  0  0  0  0  0  0  0  0
   27.2822   17.2386    9.2863 H   0  0  0  0  0  0  0  0  0  0  0  0
   27.3343   17.5328   12.2524 H   0  0  0  0  0  0  0  0  0  0  0  0
   26.4839   18.9528   11.6868 H   0  0  0  0  0  0  0  0  0  0  0  0
   24.3473   18.6652   14.5031 H   0  0  0  0  0  0  0  0  0  0  0  0
   27.0795   19.7606   13.7481 H   0  0  0  0  0  0  0  0  0  0  0  0
   25.4802   20.4251   13.2731 H   0  0  0  0  0  0  0  0  0  0  0  0
   26.4600   21.6094   15.2392 H   0  0  0  0  0  0  0  0  0  0  0  0
   24.8983   20.7805   15.6259 H   0  0  0  0  0  0  0  0  0  0  0  0
   27.1880   18.0052   17.0885 H   0  0  0  0  0  0  0  0  0  0  0  0
   29.9599   10.3948    7.1449 H   0  0  0  0  0  0  0  0  0  0  0  0
  1  2  1  0
  2  3  1  0
  3  4  2  0
  4  5  1  0
  5  6  1  0
  6  7  2  0
  6  8  2  0
  6  9  1  0
  9 10  1  0
 10 11  2  0
 11 12  1  0
 12 13  2  0
 13 14  1  0
 14 15  2  0
 15 16  1  0
 16 17  1  0
 17 18  2  0
 18 19  1  0
 19 20  2  0
 20 21  1  0
 21 22  2  0
 21 23  1  0
 23 24  1  0
 24 25  1  0
 25 26  1  0
 26 27  1  0
 27 28  1  0
 28 29  2  0
 28 30  1  0
 30 31  1  0
 31 32  2  0
 24 33  1  0
 33 34  2  0
 16 35  2  0
 35 36  1  0
  5 37  1  0
 37 38  2  0
 38  3  1  0
 36 10  1  0
 35 12  1  0
 22 17  1  0
 31 25  1  0
 33 20  1  0
  1 39  1  0
  1 40  1  0
  1 41  1  0
  2 42  1  0
  2 43  1  0
  4 44  1  0
 11 45  1  0
 13 46  1  0
 14 47  1  0
 15 48  1  0
 18 49  1  0
 19 50  1  0
 22 51  1  0
 23 52  1  0
 23 53  1  0
 25 54  1  1
 26 55  1  0
 26 56  1  0
 27 57  1  0
 27 58  1  0
 30 59  1  0
 37 60  1  0
M  END
>  <meeko>  (183) 
{"is_sidechain": [true], "free_energy": -13.87, "intermolecular_energy": 0.0, "internal_energy": -13.87, "cluster_size": 16, "cluster_id": 1, "rank_in_cluster": 1}

>  <_RMSD_MCS_to_ref>  (183) 
1.6549777228584965

$$$$
ligand
     RDKit          3D

 55 59  0  0  0  0  0  0  0  0999 V2000
   24.8540    9.4020    7.6050 C   0  0  0  0  0  0  0  0  0  0  0  0
   25.5230   10.7550    7.4270 C   0  0  0  0  0  0  0  0  0  0  0  0
   25.1720   11.3890    6.1270 C   0  0  0  0  0  0  0  0  0  0  0  0
   24.3230   12.4480    5.8760 C   0  0  0  0  0  0  0  0  0  0  0  0
   24.3460   12.5830    4.5170 N   0  0  0  0  0  0  0  0  0  0  0  0
   23.6960   13.8700    3.6460 S   0  0  0  0  0  6  0  0  0  0  0  0
   24.2360   13.7290    2.3080 O   0  0  0  0  0  0  0  0  0  0  0  0
   22.2690   13.8110    3.8990 O   0  0  0  0  0  0  0  0  0  0  0  0
   24.2980   15.2260    4.3210 O   0  0  0  0  0  0  0  0  0  0  0  0
   25.1660   15.1860    5.3800 C   0  0  0  0  0  0  0  0  0  0  0  0
   26.4980   14.8180    5.3340 C   0  0  0  0  0  0  0  0  0  0  0  0
   27.2700   14.8020    6.4360 N   0  0  0  0  0  0  0  0  0  0  0  0
   26.7340   15.1640    7.6430 N   0  0  0  0  0  0  0  0  0  0  0  0
   25.4390   15.5400    7.7430 C   0  0  0  0  0  0  0  0  0  0  0  0
   24.9690   15.9060    9.0940 C   0  0  0  0  0  0  0  0  0  0  0  0
   23.7660   15.3780    9.6360 C   0  0  0  0  0  0  0  0  0  0  0  0
   23.3200   15.7190   10.9180 C   0  0  0  0  0  0  0  0  0  0  0  0
   24.0900   16.6010   11.6450 C   0  0  0  0  0  0  0  0  0  0  0  0
   25.2690   17.1450   11.1530 C   0  0  0  0  0  0  0  0  0  0  0  0
   25.7180   16.8090    9.8840 C   0  0  0  0  0  0  0  0  0  0  0  0
   25.8820   18.0430   12.1730 C   0  0  0  0  0  0  0  0  0  0  0  0
   24.8870   18.0430   13.2380 N   0  0  0  0  0  0  0  0  0  0  0  0
   25.1750   18.6260   14.5430 C   0  0  1  0  0  0  0  0  0  0  0  0
   26.2390   17.8670   15.3360 C   0  0  0  0  0  0  0  0  0  0  0  0
   26.4160   18.5200   16.6960 C   0  0  0  0  0  0  0  0  0  0  0  0
   26.7730   19.9820   16.5610 C   0  0  0  0  0  0  0  0  0  0  0  0
   27.3610   20.5970   17.4460 O   0  0  0  0  0  0  0  0  0  0  0  0
   26.3330   20.6210   15.4290 N   0  0  0  0  0  0  0  0  0  0  0  0
   25.5530   20.1110   14.4170 C   0  0  0  0  0  0  0  0  0  0  0  0
   25.1150   20.8500   13.5360 O   0  0  0  0  0  0  0  0  0  0  0  0
   23.8720   17.1280   12.9970 C   0  0  0  0  0  0  0  0  0  0  0  0
   22.9700   16.7840   13.7340 O   0  0  0  0  0  0  0  0  0  0  0  0
   24.6300   15.5540    6.6120 C   0  0  0  0  0  0  0  0  0  0  0  0
   25.2340   11.6970    3.9990 C   0  0  0  0  0  0  0  0  0  0  0  0
   25.7380   10.9390    4.9500 N   0  0  0  0  0  0  0  0  0  0  0  0
   24.7464    9.1845    8.6779 H   0  0  0  0  0  0  0  0  0  0  0  0
   23.8606    9.4192    7.1330 H   0  0  0  0  0  0  0  0  0  0  0  0
   25.4708    8.6230    7.1330 H   0  0  0  0  0  0  0  0  0  0  0  0
   25.2020   11.4190    8.2431 H   0  0  0  0  0  0  0  0  0  0  0  0
   26.6116   10.5982    7.4432 H   0  0  0  0  0  0  0  0  0  0  0  0
   23.7568   13.0469    6.6046 H   0  0  0  0  0  0  0  0  0  0  0  0
   26.9394   14.5299    4.3685 H   0  0  0  0  0  0  0  0  0  0  0  0
   23.1681   14.6811    9.0303 H   0  0  0  0  0  0  0  0  0  0  0  0
   22.3904   15.2991   11.3296 H   0  0  0  0  0  0  0  0  0  0  0  0
   26.6510   17.2423    9.4945 H   0  0  0  0  0  0  0  0  0  0  0  0
   26.8431   17.6426   12.5279 H   0  0  0  0  0  0  0  0  0  0  0  0
   26.1110   19.0481   11.7891 H   0  0  0  0  0  0  0  0  0  0  0  0
   24.2412   18.5388   15.1179 H   0  0  0  0  0  0  0  0  0  0  0  0
   25.9218   16.8222   15.4690 H   0  0  0  0  0  0  0  0  0  0  0  0
   27.1930   17.8928   14.7890 H   0  0  0  0  0  0  0  0  0  0  0  0
   25.4764   18.4313   17.2610 H   0  0  0  0  0  0  0  0  0  0  0  0
   27.2362   18.0096   17.2220 H   0  0  0  0  0  0  0  0  0  0  0  0
   26.6225   21.6039   15.3241 H   0  0  0  0  0  0  0  0  0  0  0  0
   23.5744   15.8535    6.6896 H   0  0  0  0  0  0  0  0  0  0  0  0
   25.4960   11.6226    2.9333 H   0  0  0  0  0  0  0  0  0  0  0  0
  1  2  1  0
  2  3  1  0
  3  4  2  0
  4  5  1  0
  5  6  1  0
  6  7  2  0
  6  8  2  0
  6  9  1  0
  9 10  1  0
 10 11  2  0
 11 12  1  0
 12 13  2  0
 13 14  1  0
 14 15  1  0
 15 16  2  0
 16 17  1  0
 17 18  2  0
 18 19  1  0
 19 20  2  0
 19 21  1  0
 21 22  1  0
 22 23  1  0
 23 24  1  0
 24 25  1  0
 25 26  1  0
 26 27  2  0
 26 28  1  0
 28 29  1  0
 29 30  2  0
 22 31  1  0
 31 32  2  0
 14 33  2  0
  5 34  1  0
 34 35  2  0
 35  3  1  0
 33 10  1  0
 20 15  1  0
 29 23  1  0
 31 18  1  0
  1 36  1  0
  1 37  1  0
  1 38  1  0
  2 39  1  0
  2 40  1  0
  4 41  1  0
 11 42  1  0
 16 43  1  0
 17 44  1  0
 20 45  1  0
 21 46  1  0
 21 47  1  0
 23 48  1  1
 24 49  1  0
 24 50  1  0
 25 51  1  0
 25 52  1  0
 28 53  1  0
 33 54  1  0
 34 55  1  0
M  END
>  <meeko>  (184) 
{"is_sidechain": [true], "free_energy": -13.86, "intermolecular_energy": 0.0, "internal_energy": -13.86, "cluster_size": 16, "cluster_id": 1, "rank_in_cluster": 1}

>  <_RMSD_MCS_to_ref>  (184) 
0.41784047992824525

$$$$
ligand
     RDKit          3D

 60 65  0  0  0  0  0  0  0  0999 V2000
   24.8710    9.6170    7.7820 C   0  0  0  0  0  0  0  0  0  0  0  0
   25.4240   10.9640    7.3490 C   0  0  0  0  0  0  0  0  0  0  0  0
   26.8590   11.1340    7.7110 C   0  0  0  0  0  0  0  0  0  0  0  0
   27.4110   11.8820    8.7310 C   0  0  0  0  0  0  0  0  0  0  0  0
   28.7540   11.6770    8.6060 N   0  0  0  0  0  0  0  0  0  0  0  0
   29.9720   12.5140    9.4110 S   0  0  0  0  0  6  0  0  0  0  0  0
   29.3710   12.8620   10.6860 O   0  0  0  0  0  0  0  0  0  0  0  0
   31.1480   11.6640    9.3590 O   0  0  0  0  0  0  0  0  0  0  0  0
   30.2610   13.9050    8.6160 O   0  0  0  0  0  0  0  0  0  0  0  0
   29.3770   14.2630    7.6410 C   0  0  0  0  0  0  0  0  0  0  0  0
   29.7440   14.1290    6.3210 C   0  0  0  0  0  0  0  0  0  0  0  0
   28.9200   14.4830    5.3130 N   0  0  0  0  0  0  0  0  0  0  0  0
   27.7170   14.9800    5.6570 C   0  0  0  0  0  0  0  0  0  0  0  0
   26.8490   15.3160    4.6360 C   0  0  0  0  0  0  0  0  0  0  0  0
   25.6040   15.8140    4.9480 C   0  0  0  0  0  0  0  0  0  0  0  0
   25.1880   16.0010    6.2080 N   0  0  0  0  0  0  0  0  0  0  0  0
   26.0550   15.6880    7.2170 C   0  0  0  0  0  0  0  0  0  0  0  0
   25.5060   15.9650    8.5610 C   0  0  0  0  0  0  0  0  0  0  0  0
   24.2610   15.4270    8.9780 C   0  0  0  0  0  0  0  0  0  0  0  0
   23.7560   15.6510   10.2640 C   0  0  0  0  0  0  0  0  0  0  0  0
   24.5180   16.4180   11.1200 C   0  0  0  0  0  0  0  0  0  0  0  0
   25.7390   16.9700   10.7450 C   0  0  0  0  0  0  0  0  0  0  0  0
   26.2460   16.7470    9.4760 C   0  0  0  0  0  0  0  0  0  0  0  0
   26.2990   17.7780   11.8650 C   0  0  0  0  0  0  0  0  0  0  0  0
   25.3420   17.5460   12.9380 N   0  0  0  0  0  0  0  0  0  0  0  0
   25.3690   18.3310   14.1660 C   0  0  2  0  0  0  0  0  0  0  0  0
   26.0250   19.7030   14.0030 C   0  0  0  0  0  0  0  0  0  0  0  0
   25.9480   20.4560   15.3220 C   0  0  0  0  0  0  0  0  0  0  0  0
   26.5880   19.6700   16.4410 C   0  0  0  0  0  0  0  0  0  0  0  0
   27.0140   20.2100   17.4580 O   0  0  0  0  0  0  0  0  0  0  0  0
   26.5950   18.3040   16.3110 N   0  0  0  0  0  0  0  0  0  0  0  0
   26.0330   17.5470   15.3090 C   0  0  0  0  0  0  0  0  0  0  0  0
   25.9910   16.3210   15.4060 O   0  0  0  0  0  0  0  0  0  0  0  0
   24.2400   16.8230   12.5030 C   0  0  0  0  0  0  0  0  0  0  0  0
   23.2160   16.5790   13.1080 O   0  0  0  0  0  0  0  0  0  0  0  0
   27.3380   15.1540    7.0110 C   0  0  0  0  0  0  0  0  0  0  0  0
   28.1970   14.7950    8.0140 N   0  0  0  0  0  0  0  0  0  0  0  0
   28.9870   10.8920    7.5240 C   0  0  0  0  0  0  0  0  0  0  0  0
   27.8520   10.5140    6.9740 N   0  0  0  0  0  0  0  0  0  0  0  0
   24.8498    9.5653    8.8806 H   0  0  0  0  0  0  0  0  0  0  0  0
   23.8505    9.4962    7.3895 H   0  0  0  0  0  0  0  0  0  0  0  0
   25.5122    8.8140    7.3895 H   0  0  0  0  0  0  0  0  0  0  0  0
   25.3226   11.0526    6.2573 H   0  0  0  0  0  0  0  0  0  0  0  0
   24.8522   11.7443    7.8727 H   0  0  0  0  0  0  0  0  0  0  0  0
   26.8880   12.5015    9.4744 H   0  0  0  0  0  0  0  0  0  0  0  0
   30.7373   13.7217    6.0812 H   0  0  0  0  0  0  0  0  0  0  0  0
   27.1493   15.1871    3.5857 H   0  0  0  0  0  0  0  0  0  0  0  0
   24.9197   16.0700    4.1257 H   0  0  0  0  0  0  0  0  0  0  0  0
   23.6774   14.8179    8.2720 H   0  0  0  0  0  0  0  0  0  0  0  0
   22.7892   15.2317   10.5795 H   0  0  0  0  0  0  0  0  0  0  0  0
   27.2161   17.1748    9.1829 H   0  0  0  0  0  0  0  0  0  0  0  0
   27.3024   17.4251   12.1455 H   0  0  0  0  0  0  0  0  0  0  0  0
   26.4246   18.8418   11.6151 H   0  0  0  0  0  0  0  0  0  0  0  0
   24.3162   18.5204   14.4225 H   0  0  0  0  0  0  0  0  0  0  0  0
   27.0786   19.5747   13.7140 H   0  0  0  0  0  0  0  0  0  0  0  0
   25.4998   20.2725   13.2220 H   0  0  0  0  0  0  0  0  0  0  0  0
   26.4700   21.4184   15.2161 H   0  0  0  0  0  0  0  0  0  0  0  0
   24.8880   20.6133   15.5705 H   0  0  0  0  0  0  0  0  0  0  0  0
   27.0802   17.7816   17.0543 H   0  0  0  0  0  0  0  0  0  0  0  0
   29.9852   10.6106    7.1574 H   0  0  0  0  0  0  0  0  0  0  0  0
  1  2  1  0
  2  3  1  0
  3  4  2  0
  4  5  1  0
  5  6  1  0
  6  7  2  0
  6  8  2  0
  6  9  1  0
  9 10  1  0
 10 11  2  0
 11 12  1  0
 12 13  2  0
 13 14  1  0
 14 15  2  0
 15 16  1  0
 16 17  2  0
 17 18  1  0
 18 19  2  0
 19 20  1  0
 20 21  2  0
 21 22  1  0
 22 23  2  0
 22 24  1  0
 24 25  1  0
 25 26  1  0
 26 27  1  0
 27 28  1  0
 28 29  1  0
 29 30  2  0
 29 31  1  0
 31 32  1  0
 32 33  2  0
 25 34  1  0
 34 35  2  0
 17 36  1  0
 36 37  2  0
  5 38  1  0
 38 39  2  0
 39  3  1  0
 37 10  1  0
 36 13  1  0
 23 18  1  0
 32 26  1  0
 34 21  1  0
  1 40  1  0
  1 41  1  0
  1 42  1  0
  2 43  1  0
  2 44  1  0
  4 45  1  0
 11 46  1  0
 14 47  1  0
 15 48  1  0
 19 49  1  0
 20 50  1  0
 23 51  1  0
 24 52  1  0
 24 53  1  0
 26 54  1  1
 27 55  1  0
 27 56  1  0
 28 57  1  0
 28 58  1  0
 31 59  1  0
 38 60  1  0
M  END
>  <meeko>  (185) 
{"is_sidechain": [true], "free_energy": -13.85, "intermolecular_energy": 0.0, "internal_energy": -13.85, "cluster_size": 18, "cluster_id": 1, "rank_in_cluster": 1}

>  <_RMSD_MCS_to_ref>  (185) 
1.6594802452004442

$$$$
ligand
     RDKit          3D

 61 65  0  0  0  0  0  0  0  0999 V2000
   24.8540    9.4020    7.6050 C   0  0  0  0  0  0  0  0  0  0  0  0
   25.5230   10.7550    7.4270 C   0  0  0  0  0  0  0  0  0  0  0  0
   27.0070   10.6480    7.3880 C   0  0  0  0  0  0  0  0  0  0  0  0
   27.9260   11.5100    6.8220 C   0  0  0  0  0  0  0  0  0  0  0  0
   29.1340   10.9300    7.0830 N   0  0  0  0  0  0  0  0  0  0  0  0
   30.6180   11.4500    6.4910 S   0  0  0  0  0  6  0  0  0  0  0  0
   30.3340   12.3100    5.3570 O   0  0  0  0  0  0  0  0  0  0  0  0
   31.4140   10.2420    6.3650 O   0  0  0  0  0  0  0  0  0  0  0  0
   31.2750   12.4380    7.7910 C   0  0  0  0  0  0  0  0  0  0  0  0
   32.5920   12.2300    8.2250 C   0  0  0  0  0  0  0  0  0  0  0  0
   33.1080   12.9780    9.2930 C   0  0  0  0  0  0  0  0  0  0  0  0
   32.3180   13.9320    9.9350 C   0  0  0  0  0  0  0  0  0  0  0  0
   31.0250   14.1350    9.4750 C   0  0  0  0  0  0  0  0  0  0  0  0
   30.5020   13.4150    8.4000 C   0  0  0  0  0  0  0  0  0  0  0  0
   29.1520   13.7530    8.1190 N   0  0  0  0  0  0  0  0  0  0  0  0
   28.9410   15.0220    8.9020 C   0  0  1  0  0  0  0  0  0  0  0  0
   27.5350   15.0830    9.5180 C   0  0  0  0  0  0  0  0  0  0  0  0
   26.6530   14.3200    9.1340 O   0  0  0  0  0  0  0  0  0  0  0  0
   27.4100   16.0920   10.4550 N   0  0  0  0  0  0  0  0  0  0  0  0
   26.2640   16.4850   11.1690 C   0  0  0  0  0  0  0  0  0  0  0  0
   25.0230   16.1090   10.6460 C   0  0  0  0  0  0  0  0  0  0  0  0
   23.8410   16.4630   11.2960 C   0  0  0  0  0  0  0  0  0  0  0  0
   23.8860   17.1950   12.4810 C   0  0  0  0  0  0  0  0  0  0  0  0
   25.1170   17.5730   13.0320 C   0  0  0  0  0  0  0  0  0  0  0  0
   25.2020   18.3980   14.3060 C   0  0  1  0  0  0  0  0  0  0  0  0
   26.2720   17.8160   15.2370 C   0  0  0  0  0  0  0  0  0  0  0  0
   26.3100   18.6030   16.5360 C   0  0  0  0  0  0  0  0  0  0  0  0
   26.5600   20.0670   16.2750 C   0  0  0  0  0  0  0  0  0  0  0  0
   27.0740   20.8050   17.1100 O   0  0  0  0  0  0  0  0  0  0  0  0
   26.1230   20.5560   15.0710 N   0  0  0  0  0  0  0  0  0  0  0  0
   25.4600   19.8860   14.0660 C   0  0  0  0  0  0  0  0  0  0  0  0
   25.0660   20.5070   13.0820 O   0  0  0  0  0  0  0  0  0  0  0  0
   26.3020   17.2160   12.3590 C   0  0  0  0  0  0  0  0  0  0  0  0
   30.0020   15.0750   10.0140 C   0  0  0  0  0  0  0  0  0  0  0  0
   28.9350    9.7730    7.7640 C   0  0  0  0  0  0  0  0  0  0  0  0
   27.6490    9.5690    7.9630 N   0  0  0  0  0  0  0  0  0  0  0  0
   24.7464    9.1845    8.6779 H   0  0  0  0  0  0  0  0  0  0  0  0
   23.8606    9.4192    7.1330 H   0  0  0  0  0  0  0  0  0  0  0  0
   25.4708    8.6230    7.1330 H   0  0  0  0  0  0  0  0  0  0  0  0
   25.1751   11.2007    6.4834 H   0  0  0  0  0  0  0  0  0  0  0  0
   25.2523   11.3815    8.2897 H   0  0  0  0  0  0  0  0  0  0  0  0
   27.7295   12.4491    6.2840 H   0  0  0  0  0  0  0  0  0  0  0  0
   33.2218   11.4784    7.7266 H   0  0  0  0  0  0  0  0  0  0  0  0
   34.1428   12.8114    9.6269 H   0  0  0  0  0  0  0  0  0  0  0  0
   32.7107   14.5091   10.7851 H   0  0  0  0  0  0  0  0  0  0  0  0
   28.4787   13.2509    7.5228 H   0  0  0  0  0  0  0  0  0  0  0  0
   29.0365   15.8835    8.2247 H   0  0  0  0  0  0  0  0  0  0  0  0
   28.2679   16.6252   10.6563 H   0  0  0  0  0  0  0  0  0  0  0  0
   24.9786   15.5283    9.7128 H   0  0  0  0  0  0  0  0  0  0  0  0
   22.8710   16.1637   10.8724 H   0  0  0  0  0  0  0  0  0  0  0  0
   22.9504   17.4772   12.9860 H   0  0  0  0  0  0  0  0  0  0  0  0
   24.2112   18.3360   14.7798 H   0  0  0  0  0  0  0  0  0  0  0  0
   26.0336   16.7644   15.4544 H   0  0  0  0  0  0  0  0  0  0  0  0
   27.2539   17.8804   14.7454 H   0  0  0  0  0  0  0  0  0  0  0  0
   25.3459   18.4896   17.0534 H   0  0  0  0  0  0  0  0  0  0  0  0
   27.1297   18.2133   17.1575 H   0  0  0  0  0  0  0  0  0  0  0  0
   26.3150   21.5525   14.8951 H   0  0  0  0  0  0  0  0  0  0  0  0
   27.2735   17.5179   12.7775 H   0  0  0  0  0  0  0  0  0  0  0  0
   30.4096   16.0894   10.1356 H   0  0  0  0  0  0  0  0  0  0  0  0
   29.6254   14.8114   11.0134 H   0  0  0  0  0  0  0  0  0  0  0  0
   29.7361    9.0995    8.1026 H   0  0  0  0  0  0  0  0  0  0  0  0
  1  2  1  0
  2  3  1  0
  3  4  2  0
  4  5  1  0
  5  6  1  0
  6  7  2  0
  6  8  2  0
  6  9  1  0
  9 10  2  0
 10 11  1  0
 11 12  2  0
 12 13  1  0
 13 14  2  0
 14 15  1  0
 15 16  1  0
 16 17  1  0
 17 18  2  0
 17 19  1  0
 19 20  1  0
 20 21  2  0
 21 22  1  0
 22 23  2  0
 23 24  1  0
 24 25  1  0
 25 26  1  0
 26 27  1  0
 27 28  1  0
 28 29  2  0
 28 30  1  0
 30 31  1  0
 31 32  2  0
 24 33  2  0
 16 34  1  0
  5 35  1  0
 35 36  2  0
 36  3  1  0
 14  9  1  0
 33 20  1  0
 34 13  1  0
 31 25  1  0
  1 37  1  0
  1 38  1  0
  1 39  1  0
  2 40  1  0
  2 41  1  0
  4 42  1  0
 10 43  1  0
 11 44  1  0
 12 45  1  0
 15 46  1  0
 16 47  1  6
 19 48  1  0
 21 49  1  0
 22 50  1  0
 23 51  1  0
 25 52  1  1
 26 53  1  0
 26 54  1  0
 27 55  1  0
 27 56  1  0
 30 57  1  0
 33 58  1  0
 34 59  1  0
 34 60  1  0
 35 61  1  0
M  END
>  <meeko>  (186) 
{"is_sidechain": [true], "free_energy": -13.84, "intermolecular_energy": 0.0, "internal_energy": -13.84, "cluster_size": 16, "cluster_id": 1, "rank_in_cluster": 1}

>  <_RMSD_MCS_to_ref>  (186) 
0.5403441033267586

$$$$
ligand
     RDKit          3D

 59 64  0  0  0  0  0  0  0  0999 V2000
   24.8540    9.4020    7.6050 C   0  0  0  0  0  0  0  0  0  0  0  0
   25.5230   10.7550    7.4270 C   0  0  0  0  0  0  0  0  0  0  0  0
   26.9970   10.6350    7.2540 C   0  0  0  0  0  0  0  0  0  0  0  0
   27.8800   11.5400    6.6970 C   0  0  0  0  0  0  0  0  0  0  0  0
   29.0950   10.9280    6.7960 N   0  0  0  0  0  0  0  0  0  0  0  0
   30.5980   11.6190    6.4440 S   0  0  0  0  0  6  0  0  0  0  0  0
   31.5660   10.6570    6.9450 O   0  0  0  0  0  0  0  0  0  0  0  0
   30.5340   11.9450    5.0330 O   0  0  0  0  0  0  0  0  0  0  0  0
   30.7790   13.0110    7.2880 O   0  0  0  0  0  0  0  0  0  0  0  0
   29.9590   13.2720    8.3730 C   0  0  0  0  0  0  0  0  0  0  0  0
   30.1700   12.7170    9.5760 C   0  0  0  0  0  0  0  0  0  0  0  0
   29.1430   13.0240   10.6060 C   0  0  0  0  0  0  0  0  0  0  0  0
   28.0690   13.7340   10.4290 N   0  0  0  0  0  0  0  0  0  0  0  0
   27.8960   14.2700    9.1810 C   0  0  0  0  0  0  0  0  0  0  0  0
   26.8520   14.9500    8.5860 C   0  0  0  0  0  0  0  0  0  0  0  0
   25.5570   15.1600    9.1810 C   0  0  0  0  0  0  0  0  0  0  0  0
   24.3960   14.5960    8.6310 C   0  0  0  0  0  0  0  0  0  0  0  0
   23.1420   14.7790    9.2450 C   0  0  0  0  0  0  0  0  0  0  0  0
   23.0280   15.5310   10.4170 C   0  0  0  0  0  0  0  0  0  0  0  0
   24.1830   16.0890   10.9320 C   0  0  0  0  0  0  0  0  0  0  0  0
   25.4310   15.9200   10.3350 C   0  0  0  0  0  0  0  0  0  0  0  0
   26.4710   16.6570   11.1150 C   0  0  0  0  0  0  0  0  0  0  0  0
   25.6910   17.2920   12.1670 N   0  0  0  0  0  0  0  0  0  0  0  0
   26.2990   17.9280   13.3290 C   0  0  2  0  0  0  0  0  0  0  0  0
   25.8450   17.2970   14.6430 C   0  0  0  0  0  0  0  0  0  0  0  0
   26.5820   17.9490   15.8020 C   0  0  0  0  0  0  0  0  0  0  0  0
   26.3920   19.4480   15.7980 C   0  0  0  0  0  0  0  0  0  0  0  0
   26.3230   20.1060   16.8320 O   0  0  0  0  0  0  0  0  0  0  0  0
   26.3270   20.0560   14.5700 N   0  0  0  0  0  0  0  0  0  0  0  0
   26.0190   19.4400   13.3780 C   0  0  0  0  0  0  0  0  0  0  0  0
   25.5540   20.0950   12.4470 O   0  0  0  0  0  0  0  0  0  0  0  0
   24.3570   16.9190   12.1290 C   0  0  0  0  0  0  0  0  0  0  0  0
   23.4760   17.2040   12.9160 O   0  0  0  0  0  0  0  0  0  0  0  0
   27.2940   15.2340    7.2800 C   0  0  0  0  0  0  0  0  0  0  0  0
   28.5100   14.7490    7.0310 N   0  0  0  0  0  0  0  0  0  0  0  0
   28.8510   14.1050    8.1760 N   0  0  0  0  0  0  0  0  0  0  0  0
   28.9370    9.7220    7.4040 C   0  0  0  0  0  0  0  0  0  0  0  0
   27.6700    9.5110    7.6990 N   0  0  0  0  0  0  0  0  0  0  0  0
   24.7464    9.1845    8.6779 H   0  0  0  0  0  0  0  0  0  0  0  0
   23.8606    9.4192    7.1330 H   0  0  0  0  0  0  0  0  0  0  0  0
   25.4708    8.6230    7.1330 H   0  0  0  0  0  0  0  0  0  0  0  0
   25.1006   11.2448    6.5372 H   0  0  0  0  0  0  0  0  0  0  0  0
   25.3366   11.3461    8.3357 H   0  0  0  0  0  0  0  0  0  0  0  0
   27.6546   12.5287    6.2708 H   0  0  0  0  0  0  0  0  0  0  0  0
   31.0417   12.0796    9.7855 H   0  0  0  0  0  0  0  0  0  0  0  0
   29.3076   12.6115   11.6124 H   0  0  0  0  0  0  0  0  0  0  0  0
   24.4663   14.0027    7.7074 H   0  0  0  0  0  0  0  0  0  0  0  0
   22.2447   14.3261    8.7982 H   0  0  0  0  0  0  0  0  0  0  0  0
   22.0557   15.6736   10.9113 H   0  0  0  0  0  0  0  0  0  0  0  0
   27.2157   15.9653   11.5357 H   0  0  0  0  0  0  0  0  0  0  0  0
   27.0482   17.3702   10.5082 H   0  0  0  0  0  0  0  0  0  0  0  0
   27.3811   17.7673   13.2140 H   0  0  0  0  0  0  0  0  0  0  0  0
   24.7623   17.4470   14.7666 H   0  0  0  0  0  0  0  0  0  0  0  0
   26.0675   16.2199   14.6276 H   0  0  0  0  0  0  0  0  0  0  0  0
   26.1955   17.5411   16.7476 H   0  0  0  0  0  0  0  0  0  0  0  0
   27.6556   17.7343   15.6963 H   0  0  0  0  0  0  0  0  0  0  0  0
   26.5269   21.0659   14.5368 H   0  0  0  0  0  0  0  0  0  0  0  0
   26.6997   15.7957    6.5443 H   0  0  0  0  0  0  0  0  0  0  0  0
   29.7548    9.0188    7.6200 H   0  0  0  0  0  0  0  0  0  0  0  0
  1  2  1  0
  2  3  1  0
  3  4  2  0
  4  5  1  0
  5  6  1  0
  6  7  2  0
  6  8  2  0
  6  9  1  0
  9 10  1  0
 10 11  2  0
 11 12  1  0
 12 13  2  0
 13 14  1  0
 14 15  2  0
 15 16  1  0
 16 17  2  0
 17 18  1  0
 18 19  2  0
 19 20  1  0
 20 21  2  0
 21 22  1  0
 22 23  1  0
 23 24  1  0
 24 25  1  0
 25 26  1  0
 26 27  1  0
 27 28  2  0
 27 29  1  0
 29 30  1  0
 30 31  2  0
 23 32  1  0
 32 33  2  0
 15 34  1  0
 34 35  2  0
 35 36  1  0
  5 37  1  0
 37 38  2  0
 38  3  1  0
 36 10  1  0
 36 14  1  0
 21 16  1  0
 30 24  1  0
 32 20  1  0
  1 39  1  0
  1 40  1  0
  1 41  1  0
  2 42  1  0
  2 43  1  0
  4 44  1  0
 11 45  1  0
 12 46  1  0
 17 47  1  0
 18 48  1  0
 19 49  1  0
 22 50  1  0
 22 51  1  0
 24 52  1  6
 25 53  1  0
 25 54  1  0
 26 55  1  0
 26 56  1  0
 29 57  1  0
 34 58  1  0
 37 59  1  0
M  END
>  <meeko>  (187) 
{"is_sidechain": [true], "free_energy": -13.84, "intermolecular_energy": 0.0, "internal_energy": -13.84, "cluster_size": 19, "cluster_id": 1, "rank_in_cluster": 1}

>  <_RMSD_MCS_to_ref>  (187) 
1.3861957533720348

$$$$
ligand
     RDKit          3D

 57 61  0  0  0  0  0  0  0  0999 V2000
   24.8540    9.4020    7.6050 C   0  0  0  0  0  0  0  0  0  0  0  0
   25.5230   10.7550    7.4270 C   0  0  0  0  0  0  0  0  0  0  0  0
   25.1530   11.4000    6.1380 C   0  0  0  0  0  0  0  0  0  0  0  0
   24.2790   12.4460    5.9090 C   0  0  0  0  0  0  0  0  0  0  0  0
   24.2960   12.6010    4.5520 N   0  0  0  0  0  0  0  0  0  0  0  0
   23.5920   13.8790    3.7120 S   0  0  0  0  0  6  0  0  0  0  0  0
   22.1550   13.7100    3.8340 O   0  0  0  0  0  0  0  0  0  0  0  0
   24.2250   13.8180    2.4060 O   0  0  0  0  0  0  0  0  0  0  0  0
   24.0560   15.2840    4.4100 O   0  0  0  0  0  0  0  0  0  0  0  0
   24.9470   15.3120    5.4670 C   0  0  0  0  0  0  0  0  0  0  0  0
   24.5350   15.6250    6.7060 C   0  0  0  0  0  0  0  0  0  0  0  0
   25.4500   15.6540    7.8380 C   0  0  0  0  0  0  0  0  0  0  0  0
   25.0110   15.9590    9.2100 C   0  0  0  0  0  0  0  0  0  0  0  0
   23.7450   15.5100    9.6580 C   0  0  0  0  0  0  0  0  0  0  0  0
   23.2870   15.7940   10.9510 C   0  0  0  0  0  0  0  0  0  0  0  0
   24.1090   16.5260   11.7860 C   0  0  0  0  0  0  0  0  0  0  0  0
   25.3530   16.9650   11.3370 C   0  0  0  0  0  0  0  0  0  0  0  0
   25.8290   16.7060   10.0660 C   0  0  0  0  0  0  0  0  0  0  0  0
   25.9900   17.7180   12.4230 C   0  0  0  0  0  0  0  0  0  0  0  0
   27.0510   18.3010   12.3250 O   0  0  0  0  0  0  0  0  0  0  0  0
   25.1460   17.6330   13.5200 N   0  0  0  0  0  0  0  0  0  0  0  0
   25.2910   18.4340   14.7310 C   0  0  1  0  0  0  0  0  0  0  0  0
   26.3150   17.8750   15.7210 C   0  0  0  0  0  0  0  0  0  0  0  0
   26.3400   18.7490   16.9650 C   0  0  0  0  0  0  0  0  0  0  0  0
   26.6410   20.1890   16.6200 C   0  0  0  0  0  0  0  0  0  0  0  0
   27.1160   20.9720   17.4370 O   0  0  0  0  0  0  0  0  0  0  0  0
   26.2770   20.6100   15.3650 N   0  0  0  0  0  0  0  0  0  0  0  0
   25.6120   19.8990   14.3930 C   0  0  0  0  0  0  0  0  0  0  0  0
   25.2190   20.4600   13.3710 O   0  0  0  0  0  0  0  0  0  0  0  0
   23.8800   16.9950   13.1840 C   0  0  0  0  0  0  0  0  0  0  0  0
   26.7470   15.3730    7.6200 C   0  0  0  0  0  0  0  0  0  0  0  0
   27.2030   15.0800    6.3590 N   0  0  0  0  0  0  0  0  0  0  0  0
   26.4050   15.0520    5.2420 C   0  0  0  0  0  0  0  0  0  0  0  0
   26.8550   14.8560    4.1180 O   0  0  0  0  0  0  0  0  0  0  0  0
   25.2020   11.7450    4.0160 C   0  0  0  0  0  0  0  0  0  0  0  0
   25.7240   10.9790    4.9530 N   0  0  0  0  0  0  0  0  0  0  0  0
   24.7464    9.1845    8.6779 H   0  0  0  0  0  0  0  0  0  0  0  0
   23.8606    9.4192    7.1330 H   0  0  0  0  0  0  0  0  0  0  0  0
   25.4708    8.6230    7.1330 H   0  0  0  0  0  0  0  0  0  0  0  0
   25.2164   11.4132    8.2533 H   0  0  0  0  0  0  0  0  0  0  0  0
   26.6114   10.5958    7.4247 H   0  0  0  0  0  0  0  0  0  0  0  0
   23.7027   13.0209    6.6488 H   0  0  0  0  0  0  0  0  0  0  0  0
   23.4746   15.8667    6.8706 H   0  0  0  0  0  0  0  0  0  0  0  0
   23.1083   14.9264    8.9769 H   0  0  0  0  0  0  0  0  0  0  0  0
   22.3013   15.4443   11.2917 H   0  0  0  0  0  0  0  0  0  0  0  0
   26.8132   17.0728    9.7392 H   0  0  0  0  0  0  0  0  0  0  0  0
   24.3149   18.3856   15.2359 H   0  0  0  0  0  0  0  0  0  0  0  0
   26.0349   16.8482   15.9989 H   0  0  0  0  0  0  0  0  0  0  0  0
   27.3117   17.8677   15.2556 H   0  0  0  0  0  0  0  0  0  0  0  0
   25.3586   18.6968   17.4591 H   0  0  0  0  0  0  0  0  0  0  0  0
   27.1326   18.3795   17.6323 H   0  0  0  0  0  0  0  0  0  0  0  0
   26.5334   21.5773   15.1211 H   0  0  0  0  0  0  0  0  0  0  0  0
   23.6710   16.1500   13.8565 H   0  0  0  0  0  0  0  0  0  0  0  0
   23.0138   17.6658   13.2827 H   0  0  0  0  0  0  0  0  0  0  0  0
   27.4523   15.3781    8.4641 H   0  0  0  0  0  0  0  0  0  0  0  0
   28.2044   14.8683    6.2437 H   0  0  0  0  0  0  0  0  0  0  0  0
   25.4642   11.6970    2.9488 H   0  0  0  0  0  0  0  0  0  0  0  0
  1  2  1  0
  2  3  1  0
  3  4  2  0
  4  5  1  0
  5  6  1  0
  6  7  2  0
  6  8  2  0
  6  9  1  0
  9 10  1  0
 10 11  2  0
 11 12  1  0
 12 13  1  0
 13 14  2  0
 14 15  1  0
 15 16  2  0
 16 17  1  0
 17 18  2  0
 17 19  1  0
 19 20  2  0
 19 21  1  0
 21 22  1  0
 22 23  1  0
 23 24  1  0
 24 25  1  0
 25 26  2  0
 25 27  1  0
 27 28  1  0
 28 29  2  0
 21 30  1  0
 12 31  2  0
 31 32  1  0
 32 33  1  0
 33 34  2  0
  5 35  1  0
 35 36  2  0
 36  3  1  0
 33 10  1  0
 18 13  1  0
 28 22  1  0
 30 16  1  0
  1 37  1  0
  1 38  1  0
  1 39  1  0
  2 40  1  0
  2 41  1  0
  4 42  1  0
 11 43  1  0
 14 44  1  0
 15 45  1  0
 18 46  1  0
 22 47  1  1
 23 48  1  0
 23 49  1  0
 24 50  1  0
 24 51  1  0
 27 52  1  0
 30 53  1  0
 30 54  1  0
 31 55  1  0
 32 56  1  0
 35 57  1  0
M  END
>  <meeko>  (188) 
{"is_sidechain": [true], "free_energy": -13.83, "intermolecular_energy": 0.0, "internal_energy": -13.83, "cluster_size": 19, "cluster_id": 1, "rank_in_cluster": 1}

>  <_RMSD_MCS_to_ref>  (188) 
0.49653040636444823

$$$$
ligand
     RDKit          3D

 54 58  0  0  0  0  0  0  0  0999 V2000
   24.8710    9.6160    7.7820 C   0  0  0  0  0  0  0  0  0  0  0  0
   25.4240   10.9650    7.3490 C   0  0  0  0  0  0  0  0  0  0  0  0
   26.8600   11.1330    7.7050 C   0  0  0  0  0  0  0  0  0  0  0  0
   27.4290   12.0000    8.6150 C   0  0  0  0  0  0  0  0  0  0  0  0
   28.7640   11.7150    8.5660 N   0  0  0  0  0  0  0  0  0  0  0  0
   29.9920   12.6480    9.2650 S   0  0  0  0  0  6  0  0  0  0  0  0
   29.7100   12.6020   10.6870 O   0  0  0  0  0  0  0  0  0  0  0  0
   31.2260   12.1100    8.7240 O   0  0  0  0  0  0  0  0  0  0  0  0
   29.7880   14.1870    8.7460 O   0  0  0  0  0  0  0  0  0  0  0  0
   28.5620   14.7040    8.6750 C   0  0  0  0  0  0  0  0  0  0  0  0
   27.8410   15.0840    7.5630 C   0  0  0  0  0  0  0  0  0  0  0  0
   26.5120   15.4830    7.8900 C   0  0  0  0  0  0  0  0  0  0  0  0
   26.2640   15.3930    9.2430 C   0  0  0  0  0  0  0  0  0  0  0  0
   25.0140   15.6100    9.9580 C   0  0  0  0  0  0  0  0  0  0  0  0
   23.7870   15.2050    9.4050 C   0  0  0  0  0  0  0  0  0  0  0  0
   22.5760   15.3940   10.1010 C   0  0  0  0  0  0  0  0  0  0  0  0
   22.5700   15.9810   11.3660 C   0  0  0  0  0  0  0  0  0  0  0  0
   23.7870   16.3590   11.8970 C   0  0  0  0  0  0  0  0  0  0  0  0
   24.9950   16.1890   11.2210 C   0  0  0  0  0  0  0  0  0  0  0  0
   26.1170   16.7120   12.0560 C   0  0  0  0  0  0  0  0  0  0  0  0
   25.4520   17.0740   13.2980 N   0  0  0  0  0  0  0  0  0  0  0  0
   26.1570   17.8120   14.3390 C   0  0  2  0  0  0  0  0  0  0  0  0
   25.4820   17.7340   15.7070 C   0  0  0  0  0  0  0  0  0  0  0  0
   26.3280   18.4800   16.7270 C   0  0  0  0  0  0  0  0  0  0  0  0
   26.5530   19.9140   16.3080 C   0  0  0  0  0  0  0  0  0  0  0  0
   26.8240   20.7970   17.1150 O   0  0  0  0  0  0  0  0  0  0  0  0
   26.5200   20.1750   14.9610 N   0  0  0  0  0  0  0  0  0  0  0  0
   26.3760   19.2760   13.9280 C   0  0  0  0  0  0  0  0  0  0  0  0
   26.5260   19.6450   12.7640 O   0  0  0  0  0  0  0  0  0  0  0  0
   24.0740   16.9740   13.1990 C   0  0  0  0  0  0  0  0  0  0  0  0
   23.2290   17.3210   14.0010 O   0  0  0  0  0  0  0  0  0  0  0  0
   27.6720   14.9620   10.1120 S   0  0  0  0  0  0  0  0  0  0  0  0
   28.9780   10.7680    7.6140 C   0  0  0  0  0  0  0  0  0  0  0  0
   27.8380   10.3830    7.0760 N   0  0  0  0  0  0  0  0  0  0  0  0
   24.8497    9.5640    8.8806 H   0  0  0  0  0  0  0  0  0  0  0  0
   23.8507    9.4948    7.3893 H   0  0  0  0  0  0  0  0  0  0  0  0
   25.5127    8.8135    7.3893 H   0  0  0  0  0  0  0  0  0  0  0  0
   25.3180   11.0560    6.2579 H   0  0  0  0  0  0  0  0  0  0  0  0
   24.8552   11.7446    7.8768 H   0  0  0  0  0  0  0  0  0  0  0  0
   26.9222   12.7509    9.2389 H   0  0  0  0  0  0  0  0  0  0  0  0
   28.2452   15.0798    6.5400 H   0  0  0  0  0  0  0  0  0  0  0  0
   25.7721   15.8225    7.1502 H   0  0  0  0  0  0  0  0  0  0  0  0
   23.7715   14.7324    8.4118 H   0  0  0  0  0  0  0  0  0  0  0  0
   21.6280   15.0759    9.6427 H   0  0  0  0  0  0  0  0  0  0  0  0
   21.6321   16.1368   11.9192 H   0  0  0  0  0  0  0  0  0  0  0  0
   26.8792   15.9373   12.2258 H   0  0  0  0  0  0  0  0  0  0  0  0
   26.6538   17.5507   11.5886 H   0  0  0  0  0  0  0  0  0  0  0  0
   27.1341   17.3182   14.4463 H   0  0  0  0  0  0  0  0  0  0  0  0
   24.4839   18.1929   15.6511 H   0  0  0  0  0  0  0  0  0  0  0  0
   25.3823   16.6812   16.0097 H   0  0  0  0  0  0  0  0  0  0  0  0
   25.8125   18.4670   17.6987 H   0  0  0  0  0  0  0  0  0  0  0  0
   27.3058   17.9813   16.7993 H   0  0  0  0  0  0  0  0  0  0  0  0
   26.6145   21.1641   14.6897 H   0  0  0  0  0  0  0  0  0  0  0  0
   29.9666   10.3770    7.3317 H   0  0  0  0  0  0  0  0  0  0  0  0
  1  2  1  0
  2  3  1  0
  3  4  2  0
  4  5  1  0
  5  6  1  0
  6  7  2  0
  6  8  2  0
  6  9  1  0
  9 10  1  0
 10 11  2  0
 11 12  1  0
 12 13  2  0
 13 14  1  0
 14 15  2  0
 15 16  1  0
 16 17  2  0
 17 18  1  0
 18 19  2  0
 19 20  1  0
 20 21  1  0
 21 22  1  0
 22 23  1  0
 23 24  1  0
 24 25  1  0
 25 26  2  0
 25 27  1  0
 27 28  1  0
 28 29  2  0
 21 30  1  0
 30 31  2  0
 13 32  1  0
  5 33  1  0
 33 34  2  0
 34  3  1  0
 32 10  1  0
 19 14  1  0
 28 22  1  0
 30 18  1  0
  1 35  1  0
  1 36  1  0
  1 37  1  0
  2 38  1  0
  2 39  1  0
  4 40  1  0
 11 41  1  0
 12 42  1  0
 15 43  1  0
 16 44  1  0
 17 45  1  0
 20 46  1  0
 20 47  1  0
 22 48  1  1
 23 49  1  0
 23 50  1  0
 24 51  1  0
 24 52  1  0
 27 53  1  0
 33 54  1  0
M  END
>  <meeko>  (189) 
{"is_sidechain": [true], "free_energy": -13.83, "intermolecular_energy": 0.0, "internal_energy": -13.83, "cluster_size": 17, "cluster_id": 1, "rank_in_cluster": 1}

>  <_RMSD_MCS_to_ref>  (189) 
1.1234759800626706

$$$$
ligand
     RDKit          3D

 58 62  0  0  0  0  0  0  0  0999 V2000
   24.8540    9.4020    7.6050 C   0  0  0  0  0  0  0  0  0  0  0  0
   25.5230   10.7550    7.4270 C   0  0  0  0  0  0  0  0  0  0  0  0
   27.0040   10.6720    7.5540 C   0  0  0  0  0  0  0  0  0  0  0  0
   27.9340   11.6930    7.5620 C   0  0  0  0  0  0  0  0  0  0  0  0
   29.1300   11.0540    7.7320 N   0  0  0  0  0  0  0  0  0  0  0  0
   30.6470   11.7680    7.6760 S   0  0  0  0  0  6  0  0  0  0  0  0
   30.9290   12.0070    6.2710 O   0  0  0  0  0  0  0  0  0  0  0  0
   31.4950   10.9120    8.4960 O   0  0  0  0  0  0  0  0  0  0  0  0
   30.4080   13.3220    8.5060 C   0  0  0  0  0  0  0  0  0  0  0  0
   31.5000   13.9000    9.0400 N   0  0  0  0  0  0  0  0  0  0  0  0
   31.2820   15.0800    9.6510 C   0  0  0  0  0  0  0  0  0  0  0  0
   30.0460   15.6790    9.7260 C   0  0  0  0  0  0  0  0  0  0  0  0
   29.0090   14.9890    9.1280 C   0  0  0  0  0  0  0  0  0  0  0  0
   27.6210   15.5600    9.1290 C   0  0  0  0  0  0  0  0  0  0  0  0
   27.3590   16.5180    8.4160 O   0  0  0  0  0  0  0  0  0  0  0  0
   26.7710   14.8800    9.9810 N   0  0  0  0  0  0  0  0  0  0  0  0
   25.4120   15.1250   10.2390 C   0  0  0  0  0  0  0  0  0  0  0  0
   24.3690   14.6690    9.4200 C   0  0  0  0  0  0  0  0  0  0  0  0
   23.0210   14.9530    9.7230 C   0  0  0  0  0  0  0  0  0  0  0  0
   22.6860   15.6950   10.8530 C   0  0  0  0  0  0  0  0  0  0  0  0
   23.7260   16.1300   11.6490 C   0  0  0  0  0  0  0  0  0  0  0  0
   25.0680   15.8610   11.3650 C   0  0  0  0  0  0  0  0  0  0  0  0
   25.9290   16.4880   12.4130 C   0  0  0  0  0  0  0  0  0  0  0  0
   24.9630   17.0440   13.3470 N   0  0  0  0  0  0  0  0  0  0  0  0
   25.3190   17.9730   14.4130 C   0  0  1  0  0  0  0  0  0  0  0  0
   26.4340   17.4370   15.3060 C   0  0  0  0  0  0  0  0  0  0  0  0
   26.6810   18.4130   16.4460 C   0  0  0  0  0  0  0  0  0  0  0  0
   26.9900   19.7980   15.9230 C   0  0  0  0  0  0  0  0  0  0  0  0
   27.7730   20.5540   16.4910 O   0  0  0  0  0  0  0  0  0  0  0  0
   26.3290   20.1880   14.7860 N   0  0  0  0  0  0  0  0  0  0  0  0
   25.7360   19.3500   13.8690 C   0  0  0  0  0  0  0  0  0  0  0  0
   25.5780   19.7150   12.7060 O   0  0  0  0  0  0  0  0  0  0  0  0
   23.6630   16.9210   12.8830 C   0  0  0  0  0  0  0  0  0  0  0  0
   22.6460   17.3670   13.3770 O   0  0  0  0  0  0  0  0  0  0  0  0
   29.1500   13.7970    8.5010 N   0  0  0  0  0  0  0  0  0  0  0  0
   28.9160    9.7130    7.7720 C   0  0  0  0  0  0  0  0  0  0  0  0
   27.6310    9.4480    7.6780 N   0  0  0  0  0  0  0  0  0  0  0  0
   24.7464    9.1845    8.6779 H   0  0  0  0  0  0  0  0  0  0  0  0
   23.8606    9.4192    7.1330 H   0  0  0  0  0  0  0  0  0  0  0  0
   25.4708    8.6230    7.1330 H   0  0  0  0  0  0  0  0  0  0  0  0
   25.2745   11.1443    6.4287 H   0  0  0  0  0  0  0  0  0  0  0  0
   25.1532   11.4212    8.2204 H   0  0  0  0  0  0  0  0  0  0  0  0
   27.7535   12.7729    7.4559 H   0  0  0  0  0  0  0  0  0  0  0  0
   32.1379   15.5922   10.1148 H   0  0  0  0  0  0  0  0  0  0  0  0
   29.8931   16.6449   10.2295 H   0  0  0  0  0  0  0  0  0  0  0  0
   27.1887   14.0904   10.4938 H   0  0  0  0  0  0  0  0  0  0  0  0
   24.6069   14.0780    8.5233 H   0  0  0  0  0  0  0  0  0  0  0  0
   22.2252   14.5842    9.0592 H   0  0  0  0  0  0  0  0  0  0  0  0
   21.6389   15.9241   11.1000 H   0  0  0  0  0  0  0  0  0  0  0  0
   26.5643   15.7359   12.9036 H   0  0  0  0  0  0  0  0  0  0  0  0
   26.6214   17.2411   12.0089 H   0  0  0  0  0  0  0  0  0  0  0  0
   24.4054   18.0854   15.0152 H   0  0  0  0  0  0  0  0  0  0  0  0
   26.1380   16.4604   15.7166 H   0  0  0  0  0  0  0  0  0  0  0  0
   27.3546   17.3214   14.7151 H   0  0  0  0  0  0  0  0  0  0  0  0
   25.7824   18.4606   17.0786 H   0  0  0  0  0  0  0  0  0  0  0  0
   27.5457   18.0589   17.0265 H   0  0  0  0  0  0  0  0  0  0  0  0
   26.2712   21.1997   14.6017 H   0  0  0  0  0  0  0  0  0  0  0  0
   29.7069    8.9547    7.8694 H   0  0  0  0  0  0  0  0  0  0  0  0
  1  2  1  0
  2  3  1  0
  3  4  2  0
  4  5  1  0
  5  6  1  0
  6  7  2  0
  6  8  2  0
  6  9  1  0
  9 10  2  0
 10 11  1  0
 11 12  2  0
 12 13  1  0
 13 14  1  0
 14 15  2  0
 14 16  1  0
 16 17  1  0
 17 18  2  0
 18 19  1  0
 19 20  2  0
 20 21  1  0
 21 22  2  0
 22 23  1  0
 23 24  1  0
 24 25  1  0
 25 26  1  0
 26 27  1  0
 27 28  1  0
 28 29  2  0
 28 30  1  0
 30 31  1  0
 31 32  2  0
 24 33  1  0
 33 34  2  0
 13 35  2  0
  5 36  1  0
 36 37  2  0
 37  3  1  0
 35  9  1  0
 22 17  1  0
 31 25  1  0
 33 21  1  0
  1 38  1  0
  1 39  1  0
  1 40  1  0
  2 41  1  0
  2 42  1  0
  4 43  1  0
 11 44  1  0
 12 45  1  0
 16 46  1  0
 18 47  1  0
 19 48  1  0
 20 49  1  0
 23 50  1  0
 23 51  1  0
 25 52  1  1
 26 53  1  0
 26 54  1  0
 27 55  1  0
 27 56  1  0
 30 57  1  0
 36 58  1  0
M  END
>  <meeko>  (190) 
{"is_sidechain": [true], "free_energy": -13.82, "intermolecular_energy": 0.0, "internal_energy": -13.82, "cluster_size": 20, "cluster_id": 1, "rank_in_cluster": 1}

>  <_RMSD_MCS_to_ref>  (190) 
0.8839389119164284

$$$$
ligand
     RDKit          3D

 60 65  0  0  0  0  0  0  0  0999 V2000
   24.8540    9.4020    7.6050 C   0  0  0  0  0  0  0  0  0  0  0  0
   25.5230   10.7550    7.4270 C   0  0  0  0  0  0  0  0  0  0  0  0
   25.2720   11.3330    6.0790 C   0  0  0  0  0  0  0  0  0  0  0  0
   26.1340   12.0380    5.2620 C   0  0  0  0  0  0  0  0  0  0  0  0
   25.3930   12.3080    4.1460 N   0  0  0  0  0  0  0  0  0  0  0  0
   25.8470   13.3450    2.8940 S   0  0  0  0  0  6  0  0  0  0  0  0
   26.8610   12.6050    2.1660 O   0  0  0  0  0  0  0  0  0  0  0  0
   24.6060   13.7380    2.2530 O   0  0  0  0  0  0  0  0  0  0  0  0
   26.5600   14.6610    3.5550 O   0  0  0  0  0  0  0  0  0  0  0  0
   26.2420   14.9910    4.8450 C   0  0  0  0  0  0  0  0  0  0  0  0
   24.9960   15.4910    5.1920 C   0  0  0  0  0  0  0  0  0  0  0  0
   24.6240   15.7950    6.4530 N   0  0  0  0  0  0  0  0  0  0  0  0
   25.4990   15.6140    7.4820 C   0  0  0  0  0  0  0  0  0  0  0  0
   25.0320   15.9250    8.8340 C   0  0  0  0  0  0  0  0  0  0  0  0
   23.8590   15.3270    9.3630 C   0  0  0  0  0  0  0  0  0  0  0  0
   23.4090   15.6120   10.6570 C   0  0  0  0  0  0  0  0  0  0  0  0
   24.1450   16.5140   11.3980 C   0  0  0  0  0  0  0  0  0  0  0  0
   25.2900   17.1320   10.9060 C   0  0  0  0  0  0  0  0  0  0  0  0
   25.7420   16.8500    9.6280 C   0  0  0  0  0  0  0  0  0  0  0  0
   25.8630   18.0400   11.9420 C   0  0  0  0  0  0  0  0  0  0  0  0
   24.8840   17.9560   13.0170 N   0  0  0  0  0  0  0  0  0  0  0  0
   25.1550   18.5230   14.3340 C   0  0  1  0  0  0  0  0  0  0  0  0
   26.3050   17.8410   15.0730 C   0  0  0  0  0  0  0  0  0  0  0  0
   26.4610   18.4680   16.4500 C   0  0  0  0  0  0  0  0  0  0  0  0
   26.6800   19.9600   16.3510 C   0  0  0  0  0  0  0  0  0  0  0  0
   27.2340   20.6000   17.2400 O   0  0  0  0  0  0  0  0  0  0  0  0
   26.1540   20.5890   15.2520 N   0  0  0  0  0  0  0  0  0  0  0  0
   25.3940   20.0390   14.2450 C   0  0  0  0  0  0  0  0  0  0  0  0
   24.8670   20.7620   13.4000 O   0  0  0  0  0  0  0  0  0  0  0  0
   23.9160   16.9960   12.7640 C   0  0  0  0  0  0  0  0  0  0  0  0
   23.0470   16.5820   13.5050 O   0  0  0  0  0  0  0  0  0  0  0  0
   26.7930   15.1690    7.1770 C   0  0  0  0  0  0  0  0  0  0  0  0
   27.8930   14.9650    7.9850 N   0  0  0  0  0  0  0  0  0  0  0  0
   28.9520   14.5180    7.2420 C   0  0  0  0  0  0  0  0  0  0  0  0
   28.5470   14.4440    5.9300 C   0  0  0  0  0  0  0  0  0  0  0  0
   27.1860   14.8590    5.8730 C   0  0  0  0  0  0  0  0  0  0  0  0
   24.1330   11.8330    4.3240 C   0  0  0  0  0  0  0  0  0  0  0  0
   24.0320   11.2160    5.4840 N   0  0  0  0  0  0  0  0  0  0  0  0
   24.7464    9.1845    8.6779 H   0  0  0  0  0  0  0  0  0  0  0  0
   23.8606    9.4192    7.1330 H   0  0  0  0  0  0  0  0  0  0  0  0
   25.4708    8.6230    7.1330 H   0  0  0  0  0  0  0  0  0  0  0  0
   25.1315   11.4466    8.1875 H   0  0  0  0  0  0  0  0  0  0  0  0
   26.6082   10.6122    7.5366 H   0  0  0  0  0  0  0  0  0  0  0  0
   27.1784   12.3182    5.4636 H   0  0  0  0  0  0  0  0  0  0  0  0
   24.2633   15.6501    4.3871 H   0  0  0  0  0  0  0  0  0  0  0  0
   23.2891   14.6217    8.7403 H   0  0  0  0  0  0  0  0  0  0  0  0
   22.5056   15.1365   11.0667 H   0  0  0  0  0  0  0  0  0  0  0  0
   26.6446   17.3417    9.2362 H   0  0  0  0  0  0  0  0  0  0  0  0
   26.8502   17.6880   12.2760 H   0  0  0  0  0  0  0  0  0  0  0  0
   26.0282   19.0658   11.5807 H   0  0  0  0  0  0  0  0  0  0  0  0
   24.2505   18.3338   14.9307 H   0  0  0  0  0  0  0  0  0  0  0  0
   26.0875   16.7681   15.1805 H   0  0  0  0  0  0  0  0  0  0  0  0
   27.2367   17.9693   14.5025 H   0  0  0  0  0  0  0  0  0  0  0  0
   25.5498   18.2775   17.0360 H   0  0  0  0  0  0  0  0  0  0  0  0
   27.3383   18.0195   16.9389 H   0  0  0  0  0  0  0  0  0  0  0  0
   26.3519   21.5965   15.1700 H   0  0  0  0  0  0  0  0  0  0  0  0
   27.9141   15.1261    9.0021 H   0  0  0  0  0  0  0  0  0  0  0  0
   29.9506   14.2630    7.6265 H   0  0  0  0  0  0  0  0  0  0  0  0
   29.1635   14.1221    5.0777 H   0  0  0  0  0  0  0  0  0  0  0  0
   23.3119   11.9474    3.6011 H   0  0  0  0  0  0  0  0  0  0  0  0
  1  2  1  0
  2  3  1  0
  3  4  2  0
  4  5  1  0
  5  6  1  0
  6  7  2  0
  6  8  2  0
  6  9  1  0
  9 10  1  0
 10 11  2  0
 11 12  1  0
 12 13  2  0
 13 14  1  0
 14 15  2  0
 15 16  1  0
 16 17  2  0
 17 18  1  0
 18 19  2  0
 18 20  1  0
 20 21  1  0
 21 22  1  0
 22 23  1  0
 23 24  1  0
 24 25  1  0
 25 26  2  0
 25 27  1  0
 27 28  1  0
 28 29  2  0
 21 30  1  0
 30 31  2  0
 13 32  1  0
 32 33  1  0
 33 34  1  0
 34 35  2  0
 35 36  1  0
  5 37  1  0
 37 38  2  0
 38  3  1  0
 36 10  1  0
 19 14  1  0
 28 22  1  0
 36 32  2  0
 30 17  1  0
  1 39  1  0
  1 40  1  0
  1 41  1  0
  2 42  1  0
  2 43  1  0
  4 44  1  0
 11 45  1  0
 15 46  1  0
 16 47  1  0
 19 48  1  0
 20 49  1  0
 20 50  1  0
 22 51  1  1
 23 52  1  0
 23 53  1  0
 24 54  1  0
 24 55  1  0
 27 56  1  0
 33 57  1  0
 34 58  1  0
 35 59  1  0
 37 60  1  0
M  END
>  <meeko>  (191) 
{"is_sidechain": [true], "free_energy": -13.81, "intermolecular_energy": 0.0, "internal_energy": -13.81, "cluster_size": 20, "cluster_id": 1, "rank_in_cluster": 1}

>  <_RMSD_MCS_to_ref>  (191) 
0.4428432127865468

$$$$
ligand
     RDKit          3D

 59 64  0  0  0  0  0  0  0  0999 V2000
   24.8540    9.4020    7.6050 C   0  0  0  0  0  0  0  0  0  0  0  0
   25.5230   10.7550    7.4270 C   0  0  0  0  0  0  0  0  0  0  0  0
   27.0070   10.6600    7.4800 C   0  0  0  0  0  0  0  0  0  0  0  0
   27.9510   11.6300    7.2070 C   0  0  0  0  0  0  0  0  0  0  0  0
   29.1440   11.0100    7.4340 N   0  0  0  0  0  0  0  0  0  0  0  0
   30.6640   11.6530    7.1550 S   0  0  0  0  0  6  0  0  0  0  0  0
   31.2920   10.8130    6.1510 O   0  0  0  0  0  0  0  0  0  0  0  0
   31.2590   11.8930    8.4560 O   0  0  0  0  0  0  0  0  0  0  0  0
   30.5120   13.2080    6.4220 C   0  0  0  0  0  0  0  0  0  0  0  0
   31.2500   13.5630    5.3020 N   0  0  0  0  0  0  0  0  0  0  0  0
   30.8880   14.7930    5.0210 C   0  0  0  0  0  0  0  0  0  0  0  0
   29.9530   15.2510    5.9030 N   0  0  0  0  0  0  0  0  0  0  0  0
   29.6990   14.2530    6.8090 C   0  0  0  0  0  0  0  0  0  0  0  0
   28.6940   14.4160    7.9620 C   0  0  0  0  0  0  0  0  0  0  0  0
   27.4130   14.9010    7.9250 C   0  0  0  0  0  0  0  0  0  0  0  0
   26.9670   14.8260    9.2280 N   0  0  0  0  0  0  0  0  0  0  0  0
   25.7060   15.2000    9.7600 C   0  0  0  0  0  0  0  0  0  0  0  0
   24.5150   14.6750    9.2170 C   0  0  0  0  0  0  0  0  0  0  0  0
   23.2560   15.0310    9.7400 C   0  0  0  0  0  0  0  0  0  0  0  0
   23.1560   15.9140   10.8110 C   0  0  0  0  0  0  0  0  0  0  0  0
   24.3340   16.4210   11.3260 C   0  0  0  0  0  0  0  0  0  0  0  0
   25.5980   16.0880   10.8300 C   0  0  0  0  0  0  0  0  0  0  0  0
   26.6410   16.7990   11.6370 C   0  0  0  0  0  0  0  0  0  0  0  0
   25.8510   17.6140   12.5530 N   0  0  0  0  0  0  0  0  0  0  0  0
   26.4190   18.2880   13.7150 C   0  0  2  0  0  0  0  0  0  0  0  0
   25.9920   17.6440   15.0300 C   0  0  0  0  0  0  0  0  0  0  0  0
   26.6900   18.3440   16.1860 C   0  0  0  0  0  0  0  0  0  0  0  0
   26.4120   19.8300   16.1720 C   0  0  0  0  0  0  0  0  0  0  0  0
   26.2970   20.4850   17.2020 O   0  0  0  0  0  0  0  0  0  0  0  0
   26.3160   20.4230   14.9400 N   0  0  0  0  0  0  0  0  0  0  0  0
   26.0590   19.7840   13.7480 C   0  0  0  0  0  0  0  0  0  0  0  0
   25.5750   20.4040   12.8040 O   0  0  0  0  0  0  0  0  0  0  0  0
   24.4970   17.3540   12.4460 C   0  0  0  0  0  0  0  0  0  0  0  0
   23.5930   17.7930   13.1300 O   0  0  0  0  0  0  0  0  0  0  0  0
   27.9560   14.3160   10.0040 N   0  0  0  0  0  0  0  0  0  0  0  0
   29.0080   14.0630    9.2400 N   0  0  0  0  0  0  0  0  0  0  0  0
   28.9170    9.7120    7.7620 C   0  0  0  0  0  0  0  0  0  0  0  0
   27.6230    9.4720    7.8270 N   0  0  0  0  0  0  0  0  0  0  0  0
   24.7464    9.1845    8.6779 H   0  0  0  0  0  0  0  0  0  0  0  0
   23.8606    9.4192    7.1330 H   0  0  0  0  0  0  0  0  0  0  0  0
   25.4708    8.6230    7.1330 H   0  0  0  0  0  0  0  0  0  0  0  0
   25.2293   11.1697    6.4514 H   0  0  0  0  0  0  0  0  0  0  0  0
   25.1966   11.4042    8.2529 H   0  0  0  0  0  0  0  0  0  0  0  0
   27.7797   12.6665    6.8808 H   0  0  0  0  0  0  0  0  0  0  0  0
   31.2877   15.3801    4.1810 H   0  0  0  0  0  0  0  0  0  0  0  0
   29.5147   16.1830    5.8906 H   0  0  0  0  0  0  0  0  0  0  0  0
   26.8610   15.2696    7.0478 H   0  0  0  0  0  0  0  0  0  0  0  0
   24.5699   13.9752    8.3701 H   0  0  0  0  0  0  0  0  0  0  0  0
   22.3428   14.6066    9.2972 H   0  0  0  0  0  0  0  0  0  0  0  0
   22.1793   16.1968   11.2305 H   0  0  0  0  0  0  0  0  0  0  0  0
   27.2703   16.0839   12.1871 H   0  0  0  0  0  0  0  0  0  0  0  0
   27.3358   17.3896   11.0218 H   0  0  0  0  0  0  0  0  0  0  0  0
   27.5089   18.1822   13.6102 H   0  0  0  0  0  0  0  0  0  0  0  0
   24.9024   17.7384   15.1480 H   0  0  0  0  0  0  0  0  0  0  0  0
   26.2687   16.5794   15.0244 H   0  0  0  0  0  0  0  0  0  0  0  0
   26.3276   17.9199   17.1340 H   0  0  0  0  0  0  0  0  0  0  0  0
   27.7744   18.1911   16.0828 H   0  0  0  0  0  0  0  0  0  0  0  0
   26.4488   21.4437   14.9025 H   0  0  0  0  0  0  0  0  0  0  0  0
   29.7033    8.9654    7.9475 H   0  0  0  0  0  0  0  0  0  0  0  0
  1  2  1  0
  2  3  1  0
  3  4  2  0
  4  5  1  0
  5  6  1  0
  6  7  2  0
  6  8  2  0
  6  9  1  0
  9 10  1  0
 10 11  2  0
 11 12  1  0
 12 13  1  0
 13 14  1  0
 14 15  2  0
 15 16  1  0
 16 17  1  0
 17 18  2  0
 18 19  1  0
 19 20  2  0
 20 21  1  0
 21 22  2  0
 22 23  1  0
 23 24  1  0
 24 25  1  0
 25 26  1  0
 26 27  1  0
 27 28  1  0
 28 29  2  0
 28 30  1  0
 30 31  1  0
 31 32  2  0
 24 33  1  0
 33 34  2  0
 16 35  1  0
 35 36  2  0
  5 37  1  0
 37 38  2  0
 38  3  1  0
 13  9  2  0
 36 14  1  0
 22 17  1  0
 31 25  1  0
 33 21  1  0
  1 39  1  0
  1 40  1  0
  1 41  1  0
  2 42  1  0
  2 43  1  0
  4 44  1  0
 11 45  1  0
 12 46  1  0
 15 47  1  0
 18 48  1  0
 19 49  1  0
 20 50  1  0
 23 51  1  0
 23 52  1  0
 25 53  1  6
 26 54  1  0
 26 55  1  0
 27 56  1  0
 27 57  1  0
 30 58  1  0
 37 59  1  0
M  END
>  <meeko>  (192) 
{"is_sidechain": [true], "free_energy": -13.81, "intermolecular_energy": 0.0, "internal_energy": -13.81, "cluster_size": 20, "cluster_id": 1, "rank_in_cluster": 1}

>  <_RMSD_MCS_to_ref>  (192) 
1.10884494457571

$$$$
ligand
     RDKit          3D

 62 67  0  0  0  0  0  0  0  0999 V2000
   24.8710    9.6160    7.7820 C   0  0  0  0  0  0  0  0  0  0  0  0
   25.4240   10.9650    7.3490 C   0  0  0  0  0  0  0  0  0  0  0  0
   26.5900   11.3820    8.1740 C   0  0  0  0  0  0  0  0  0  0  0  0
   27.9360   11.2200    7.9150 C   0  0  0  0  0  0  0  0  0  0  0  0
   28.5570   11.7990    8.9850 N   0  0  0  0  0  0  0  0  0  0  0  0
   30.1960   12.2000    9.0800 S   0  0  0  0  0  6  0  0  0  0  0  0
   30.8770   11.1830    8.2970 O   0  0  0  0  0  0  0  0  0  0  0  0
   30.4470   12.3410   10.5020 O   0  0  0  0  0  0  0  0  0  0  0  0
   30.3920   13.6680    8.3760 O   0  0  0  0  0  0  0  0  0  0  0  0
   29.5220   14.0460    7.3880 C   0  0  0  0  0  0  0  0  0  0  0  0
   29.8980   13.8560    6.0660 C   0  0  0  0  0  0  0  0  0  0  0  0
   29.0400   14.2670    5.0480 C   0  0  0  0  0  0  0  0  0  0  0  0
   27.8000   14.8600    5.3490 C   0  0  0  0  0  0  0  0  0  0  0  0
   26.9320   15.2850    4.3440 C   0  0  0  0  0  0  0  0  0  0  0  0
   25.7290   15.8580    4.5600 N   0  0  0  0  0  0  0  0  0  0  0  0
   25.3640   16.0170    5.8510 C   0  0  0  0  0  0  0  0  0  0  0  0
   26.1350   15.6370    6.9530 C   0  0  0  0  0  0  0  0  0  0  0  0
   25.6210   15.8820    8.3110 C   0  0  0  0  0  0  0  0  0  0  0  0
   24.4460   15.2290    8.7580 C   0  0  0  0  0  0  0  0  0  0  0  0
   23.9420   15.4390   10.0440 C   0  0  0  0  0  0  0  0  0  0  0  0
   24.6400   16.3010   10.8660 C   0  0  0  0  0  0  0  0  0  0  0  0
   25.7950   16.9600   10.4570 C   0  0  0  0  0  0  0  0  0  0  0  0
   26.2940   16.7670    9.1790 C   0  0  0  0  0  0  0  0  0  0  0  0
   26.3020   17.8290   11.5570 C   0  0  0  0  0  0  0  0  0  0  0  0
   25.3950   17.5180   12.6540 N   0  0  0  0  0  0  0  0  0  0  0  0
   25.3930   18.3070   13.8810 C   0  0  2  0  0  0  0  0  0  0  0  0
   26.0660   19.6720   13.7390 C   0  0  0  0  0  0  0  0  0  0  0  0
   25.9530   20.4280   15.0530 C   0  0  0  0  0  0  0  0  0  0  0  0
   26.5530   19.6380   16.1930 C   0  0  0  0  0  0  0  0  0  0  0  0
   26.9520   20.1760   17.2220 O   0  0  0  0  0  0  0  0  0  0  0  0
   26.5550   18.2730   16.0620 N   0  0  0  0  0  0  0  0  0  0  0  0
   26.0110   17.5190   15.0470 C   0  0  0  0  0  0  0  0  0  0  0  0
   25.9470   16.2950   15.1490 O   0  0  0  0  0  0  0  0  0  0  0  0
   24.3510   16.7010   12.2470 C   0  0  0  0  0  0  0  0  0  0  0  0
   23.3620   16.3670   12.8700 O   0  0  0  0  0  0  0  0  0  0  0  0
   27.3950   15.0350    6.6940 C   0  0  0  0  0  0  0  0  0  0  0  0
   28.2780   14.5930    7.7040 C   0  0  0  0  0  0  0  0  0  0  0  0
   27.6170   12.3140    9.8200 C   0  0  0  0  0  0  0  0  0  0  0  0
   26.4080   12.0630    9.3620 N   0  0  0  0  0  0  0  0  0  0  0  0
   24.8497    9.5640    8.8806 H   0  0  0  0  0  0  0  0  0  0  0  0
   23.8507    9.4948    7.3893 H   0  0  0  0  0  0  0  0  0  0  0  0
   25.5127    8.8135    7.3893 H   0  0  0  0  0  0  0  0  0  0  0  0
   25.7392   10.8982    6.2972 H   0  0  0  0  0  0  0  0  0  0  0  0
   24.6301   11.7149    7.4805 H   0  0  0  0  0  0  0  0  0  0  0  0
   28.4025   10.7350    7.0449 H   0  0  0  0  0  0  0  0  0  0  0  0
   30.8628   13.3861    5.8243 H   0  0  0  0  0  0  0  0  0  0  0  0
   29.3352   14.1264    3.9977 H   0  0  0  0  0  0  0  0  0  0  0  0
   27.2502   15.1432    3.3006 H   0  0  0  0  0  0  0  0  0  0  0  0
   24.3864   16.4804    6.0498 H   0  0  0  0  0  0  0  0  0  0  0  0
   23.9196   14.5425    8.0786 H   0  0  0  0  0  0  0  0  0  0  0  0
   23.0254   14.9374   10.3879 H   0  0  0  0  0  0  0  0  0  0  0  0
   27.1999   17.2951    8.8468 H   0  0  0  0  0  0  0  0  0  0  0  0
   27.3404   17.5752   11.8166 H   0  0  0  0  0  0  0  0  0  0  0  0
   26.3214   18.8974   11.2959 H   0  0  0  0  0  0  0  0  0  0  0  0
   24.3342   18.5084   14.1011 H   0  0  0  0  0  0  0  0  0  0  0  0
   27.1273   19.5336   13.4850 H   0  0  0  0  0  0  0  0  0  0  0  0
   25.5714   20.2450   12.9409 H   0  0  0  0  0  0  0  0  0  0  0  0
   26.4849   21.3866   14.9620 H   0  0  0  0  0  0  0  0  0  0  0  0
   24.8871   20.5940   15.2681 H   0  0  0  0  0  0  0  0  0  0  0  0
   27.0207   17.7475   16.8155 H   0  0  0  0  0  0  0  0  0  0  0  0
   27.9794   14.6817    8.7590 H   0  0  0  0  0  0  0  0  0  0  0  0
   27.8351   12.8632   10.7478 H   0  0  0  0  0  0  0  0  0  0  0  0
  1  2  1  0
  2  3  1  0
  3  4  2  0
  4  5  1  0
  5  6  1  0
  6  7  2  0
  6  8  2  0
  6  9  1  0
  9 10  1  0
 10 11  2  0
 11 12  1  0
 12 13  2  0
 13 14  1  0
 14 15  2  0
 15 16  1  0
 16 17  2  0
 17 18  1  0
 18 19  2  0
 19 20  1  0
 20 21  2  0
 21 22  1  0
 22 23  2  0
 22 24  1  0
 24 25  1  0
 25 26  1  0
 26 27  1  0
 27 28  1  0
 28 29  1  0
 29 30  2  0
 29 31  1  0
 31 32  1  0
 32 33  2  0
 25 34  1  0
 34 35  2  0
 17 36  1  0
 36 37  2  0
  5 38  1  0
 38 39  2  0
 39  3  1  0
 37 10  1  0
 36 13  1  0
 23 18  1  0
 32 26  1  0
 34 21  1  0
  1 40  1  0
  1 41  1  0
  1 42  1  0
  2 43  1  0
  2 44  1  0
  4 45  1  0
 11 46  1  0
 12 47  1  0
 14 48  1  0
 16 49  1  0
 19 50  1  0
 20 51  1  0
 23 52  1  0
 24 53  1  0
 24 54  1  0
 26 55  1  1
 27 56  1  0
 27 57  1  0
 28 58  1  0
 28 59  1  0
 31 60  1  0
 37 61  1  0
 38 62  1  0
M  END
>  <meeko>  (193) 
{"is_sidechain": [true], "free_energy": -13.81, "intermolecular_energy": 0.0, "internal_energy": -13.81, "cluster_size": 18, "cluster_id": 1, "rank_in_cluster": 1}

>  <_RMSD_MCS_to_ref>  (193) 
1.7229654668622931

$$$$
ligand
     RDKit          3D

 59 62  0  0  0  0  0  0  0  0999 V2000
   24.8710    9.6160    7.7820 C   0  0  0  0  0  0  0  0  0  0  0  0
   25.4240   10.9650    7.3490 C   0  0  0  0  0  0  0  0  0  0  0  0
   26.9100   10.9620    7.2670 C   0  0  0  0  0  0  0  0  0  0  0  0
   27.8320   11.3300    8.2280 C   0  0  0  0  0  0  0  0  0  0  0  0
   29.0400   11.1250    7.6290 N   0  0  0  0  0  0  0  0  0  0  0  0
   30.5460   11.5720    8.2310 S   0  0  0  0  0  6  0  0  0  0  0  0
   31.3590   10.3740    8.1250 O   0  0  0  0  0  0  0  0  0  0  0  0
   30.3000   12.2000    9.5190 O   0  0  0  0  0  0  0  0  0  0  0  0
   31.1380   12.7620    7.0470 C   0  0  0  0  0  0  0  0  0  0  0  0
   32.3710   12.5060    6.4270 C   0  0  0  0  0  0  0  0  0  0  0  0
   32.8720   13.3900    5.4710 C   0  0  0  0  0  0  0  0  0  0  0  0
   32.1500   14.5330    5.1370 C   0  0  0  0  0  0  0  0  0  0  0  0
   30.9310   14.7990    5.7630 C   0  0  0  0  0  0  0  0  0  0  0  0
   30.4170   13.9200    6.7240 C   0  0  0  0  0  0  0  0  0  0  0  0
   29.1860   14.2690    7.3560 C   0  0  0  0  0  0  0  0  0  0  0  0
   28.1980   14.4870    8.0030 C   0  0  0  0  0  0  0  0  0  0  0  0
   27.1370   14.9080    8.8900 C   0  0  0  0  0  0  0  0  0  0  0  0
   26.0760   14.3060    8.8580 O   0  0  0  0  0  0  0  0  0  0  0  0
   27.5070   15.9650    9.6880 N   0  0  0  0  0  0  0  0  0  0  0  0
   26.7420   16.6050   10.6780 C   0  0  0  0  0  0  0  0  0  0  0  0
   26.9260   17.9270   11.0740 C   0  0  0  0  0  0  0  0  0  0  0  0
   26.1140   18.4920   12.0700 C   0  0  0  0  0  0  0  0  0  0  0  0
   25.1220   17.7490   12.7140 C   0  0  0  0  0  0  0  0  0  0  0  0
   24.2370   18.2730   13.6580 N   0  0  0  0  0  0  0  0  0  0  0  0
   24.7310   18.8950   14.8950 C   0  0  1  0  0  0  0  0  0  0  0  0
   25.8020   18.0070   15.5280 C   0  0  0  0  0  0  0  0  0  0  0  0
   26.3530   18.6800   16.7750 C   0  0  0  0  0  0  0  0  0  0  0  0
   26.9100   20.0460   16.4560 C   0  0  0  0  0  0  0  0  0  0  0  0
   27.8430   20.5390   17.0830 O   0  0  0  0  0  0  0  0  0  0  0  0
   26.2870   20.7430   15.4530 N   0  0  0  0  0  0  0  0  0  0  0  0
   25.3650   20.2570   14.5580 C   0  0  0  0  0  0  0  0  0  0  0  0
   25.0630   20.9020   13.5530 O   0  0  0  0  0  0  0  0  0  0  0  0
   24.9220   16.4330   12.2760 C   0  0  0  0  0  0  0  0  0  0  0  0
   25.7270   15.8620   11.2830 C   0  0  0  0  0  0  0  0  0  0  0  0
   28.8390   10.6760    6.3630 C   0  0  0  0  0  0  0  0  0  0  0  0
   27.5530   10.5640    6.1120 N   0  0  0  0  0  0  0  0  0  0  0  0
   24.8497    9.5640    8.8806 H   0  0  0  0  0  0  0  0  0  0  0  0
   23.8507    9.4948    7.3893 H   0  0  0  0  0  0  0  0  0  0  0  0
   25.5127    8.8135    7.3893 H   0  0  0  0  0  0  0  0  0  0  0  0
   25.0149   11.2146    6.3589 H   0  0  0  0  0  0  0  0  0  0  0  0
   25.1284   11.7095    8.1029 H   0  0  0  0  0  0  0  0  0  0  0  0
   27.6364   11.7031    9.2441 H   0  0  0  0  0  0  0  0  0  0  0  0
   32.9437   11.6061    6.6956 H   0  0  0  0  0  0  0  0  0  0  0  0
   33.8356   13.1845    4.9819 H   0  0  0  0  0  0  0  0  0  0  0  0
   32.5409   15.2274    4.3787 H   0  0  0  0  0  0  0  0  0  0  0  0
   30.3693   15.7072    5.4990 H   0  0  0  0  0  0  0  0  0  0  0  0
   28.4586   16.3315    9.5428 H   0  0  0  0  0  0  0  0  0  0  0  0
   27.7136   18.5334   10.6028 H   0  0  0  0  0  0  0  0  0  0  0  0
   26.2626   19.5453   12.3500 H   0  0  0  0  0  0  0  0  0  0  0  0
   23.2228   18.2231   13.4852 H   0  0  0  0  0  0  0  0  0  0  0  0
   23.8914   19.0242   15.5938 H   0  0  0  0  0  0  0  0  0  0  0  0
   25.3592   17.0377   15.8008 H   0  0  0  0  0  0  0  0  0  0  0  0
   26.6182   17.8501   14.8074 H   0  0  0  0  0  0  0  0  0  0  0  0
   25.5442   18.7855   17.5131 H   0  0  0  0  0  0  0  0  0  0  0  0
   27.1657   18.0572   17.1772 H   0  0  0  0  0  0  0  0  0  0  0  0
   26.5371   21.7379   15.3606 H   0  0  0  0  0  0  0  0  0  0  0  0
   24.1140   15.8349   12.7226 H   0  0  0  0  0  0  0  0  0  0  0  0
   25.5582   14.8190   10.9770 H   0  0  0  0  0  0  0  0  0  0  0  0
   29.6402   10.4391    5.6475 H   0  0  0  0  0  0  0  0  0  0  0  0
  1  2  1  0
  2  3  1  0
  3  4  2  0
  4  5  1  0
  5  6  1  0
  6  7  2  0
  6  8  2  0
  6  9  1  0
  9 10  2  0
 10 11  1  0
 11 12  2  0
 12 13  1  0
 13 14  2  0
 14 15  1  0
 15 16  3  0
 16 17  1  0
 17 18  2  0
 17 19  1  0
 19 20  1  0
 20 21  2  0
 21 22  1  0
 22 23  2  0
 23 24  1  0
 24 25  1  0
 25 26  1  0
 26 27  1  0
 27 28  1  0
 28 29  2  0
 28 30  1  0
 30 31  1  0
 31 32  2  0
 23 33  1  0
 33 34  2  0
  5 35  1  0
 35 36  2  0
 36  3  1  0
 14  9  1  0
 34 20  1  0
 31 25  1  0
  1 37  1  0
  1 38  1  0
  1 39  1  0
  2 40  1  0
  2 41  1  0
  4 42  1  0
 10 43  1  0
 11 44  1  0
 12 45  1  0
 13 46  1  0
 19 47  1  0
 21 48  1  0
 22 49  1  0
 24 50  1  0
 25 51  1  1
 26 52  1  0
 26 53  1  0
 27 54  1  0
 27 55  1  0
 30 56  1  0
 33 57  1  0
 34 58  1  0
 35 59  1  0
M  END
>  <meeko>  (194) 
{"is_sidechain": [true], "free_energy": -13.8, "intermolecular_energy": 0.0, "internal_energy": -13.8, "cluster_size": 19, "cluster_id": 1, "rank_in_cluster": 1}

>  <_RMSD_MCS_to_ref>  (194) 
0.7126023513230302

$$$$
ligand
     RDKit          3D

 62 67  0  0  0  0  0  0  0  0999 V2000
   24.8710    9.6170    7.7820 C   0  0  0  0  0  0  0  0  0  0  0  0
   25.4240   10.9640    7.3490 C   0  0  0  0  0  0  0  0  0  0  0  0
   26.6960   11.3000    8.0470 C   0  0  0  0  0  0  0  0  0  0  0  0
   27.9840   11.2970    7.5500 C   0  0  0  0  0  0  0  0  0  0  0  0
   28.7540   11.6800    8.6110 N   0  0  0  0  0  0  0  0  0  0  0  0
   30.3790   12.1360    8.5400 S   0  0  0  0  0  6  0  0  0  0  0  0
   30.7220   12.4500    9.9140 O   0  0  0  0  0  0  0  0  0  0  0  0
   31.0390   11.0530    7.8350 O   0  0  0  0  0  0  0  0  0  0  0  0
   30.4610   13.5210    7.6680 O   0  0  0  0  0  0  0  0  0  0  0  0
   29.7010   13.6460    6.5290 C   0  0  0  0  0  0  0  0  0  0  0  0
   30.2440   13.2610    5.3040 C   0  0  0  0  0  0  0  0  0  0  0  0
   29.4810   13.3870    4.1520 C   0  0  0  0  0  0  0  0  0  0  0  0
   28.1890   13.9120    4.2290 C   0  0  0  0  0  0  0  0  0  0  0  0
   27.6380   14.3300    5.4320 C   0  0  0  0  0  0  0  0  0  0  0  0
   26.3940   14.8320    5.4310 N   0  0  0  0  0  0  0  0  0  0  0  0
   25.8690   15.2440    6.6100 C   0  0  0  0  0  0  0  0  0  0  0  0
   26.5270   15.1930    7.8320 C   0  0  0  0  0  0  0  0  0  0  0  0
   25.8980   15.6460    9.0780 C   0  0  0  0  0  0  0  0  0  0  0  0
   24.5460   15.3280    9.3650 C   0  0  0  0  0  0  0  0  0  0  0  0
   23.9290   15.7580   10.5450 C   0  0  0  0  0  0  0  0  0  0  0  0
   24.6880   16.5030   11.4230 C   0  0  0  0  0  0  0  0  0  0  0  0
   26.0150   16.8320   11.1730 C   0  0  0  0  0  0  0  0  0  0  0  0
   26.6310   16.4100   10.0070 C   0  0  0  0  0  0  0  0  0  0  0  0
   26.5570   17.6610   12.2880 C   0  0  0  0  0  0  0  0  0  0  0  0
   25.4530   17.6770   13.2380 N   0  0  0  0  0  0  0  0  0  0  0  0
   25.4630   18.5670   14.3930 C   0  0  2  0  0  0  0  0  0  0  0  0
   26.0820   19.9350   14.1100 C   0  0  0  0  0  0  0  0  0  0  0  0
   25.9850   20.8000   15.3580 C   0  0  0  0  0  0  0  0  0  0  0  0
   26.6490   20.1330   16.5400 C   0  0  0  0  0  0  0  0  0  0  0  0
   27.0660   20.7720   17.5010 O   0  0  0  0  0  0  0  0  0  0  0  0
   26.6910   18.7610   16.5300 N   0  0  0  0  0  0  0  0  0  0  0  0
   26.1490   17.9040   15.5990 C   0  0  0  0  0  0  0  0  0  0  0  0
   26.1400   16.6910   15.8040 O   0  0  0  0  0  0  0  0  0  0  0  0
   24.3110   17.0880   12.7150 C   0  0  0  0  0  0  0  0  0  0  0  0
   23.1920   17.0530   13.1870 O   0  0  0  0  0  0  0  0  0  0  0  0
   27.8250   14.6720    7.8080 C   0  0  0  0  0  0  0  0  0  0  0  0
   28.4080   14.2140    6.6080 C   0  0  0  0  0  0  0  0  0  0  0  0
   27.9480   11.9440    9.6730 C   0  0  0  0  0  0  0  0  0  0  0  0
   26.6880   11.7100    9.3670 N   0  0  0  0  0  0  0  0  0  0  0  0
   24.8498    9.5653    8.8806 H   0  0  0  0  0  0  0  0  0  0  0  0
   23.8505    9.4962    7.3895 H   0  0  0  0  0  0  0  0  0  0  0  0
   25.5122    8.8140    7.3895 H   0  0  0  0  0  0  0  0  0  0  0  0
   25.6105   10.9387    6.2652 H   0  0  0  0  0  0  0  0  0  0  0  0
   24.6822   11.7334    7.6094 H   0  0  0  0  0  0  0  0  0  0  0  0
   28.3146   11.0439    6.5318 H   0  0  0  0  0  0  0  0  0  0  0  0
   31.2674   12.8612    5.2513 H   0  0  0  0  0  0  0  0  0  0  0  0
   29.8924   13.0743    3.1809 H   0  0  0  0  0  0  0  0  0  0  0  0
   27.5911   13.9965    3.3096 H   0  0  0  0  0  0  0  0  0  0  0  0
   24.8462   15.6487    6.5986 H   0  0  0  0  0  0  0  0  0  0  0  0
   23.9695   14.7300    8.6439 H   0  0  0  0  0  0  0  0  0  0  0  0
   22.8796   15.5114   10.7638 H   0  0  0  0  0  0  0  0  0  0  0  0
   27.6815   16.6686    9.8083 H   0  0  0  0  0  0  0  0  0  0  0  0
   27.4527   17.1981   12.7279 H   0  0  0  0  0  0  0  0  0  0  0  0
   26.8763   18.6649   11.9715 H   0  0  0  0  0  0  0  0  0  0  0  0
   24.4056   18.7501   14.6347 H   0  0  0  0  0  0  0  0  0  0  0  0
   27.1387   19.8094   13.8314 H   0  0  0  0  0  0  0  0  0  0  0  0
   25.5416   20.4196   13.2835 H   0  0  0  0  0  0  0  0  0  0  0  0
   26.4795   21.7636   15.1657 H   0  0  0  0  0  0  0  0  0  0  0  0
   24.9214   20.9496   15.5955 H   0  0  0  0  0  0  0  0  0  0  0  0
   27.1892   18.3185   17.3154 H   0  0  0  0  0  0  0  0  0  0  0  0
   28.4021   14.6184    8.7429 H   0  0  0  0  0  0  0  0  0  0  0  0
   28.2988   12.3031   10.6518 H   0  0  0  0  0  0  0  0  0  0  0  0
  1  2  1  0
  2  3  1  0
  3  4  2  0
  4  5  1  0
  5  6  1  0
  6  7  2  0
  6  8  2  0
  6  9  1  0
  9 10  1  0
 10 11  2  0
 11 12  1  0
 12 13  2  0
 13 14  1  0
 14 15  2  0
 15 16  1  0
 16 17  2  0
 17 18  1  0
 18 19  2  0
 19 20  1  0
 20 21  2  0
 21 22  1  0
 22 23  2  0
 22 24  1  0
 24 25  1  0
 25 26  1  0
 26 27  1  0
 27 28  1  0
 28 29  1  0
 29 30  2  0
 29 31  1  0
 31 32  1  0
 32 33  2  0
 25 34  1  0
 34 35  2  0
 17 36  1  0
 36 37  2  0
  5 38  1  0
 38 39  2  0
 39  3  1  0
 37 10  1  0
 37 14  1  0
 23 18  1  0
 32 26  1  0
 34 21  1  0
  1 40  1  0
  1 41  1  0
  1 42  1  0
  2 43  1  0
  2 44  1  0
  4 45  1  0
 11 46  1  0
 12 47  1  0
 13 48  1  0
 16 49  1  0
 19 50  1  0
 20 51  1  0
 23 52  1  0
 24 53  1  0
 24 54  1  0
 26 55  1  1
 27 56  1  0
 27 57  1  0
 28 58  1  0
 28 59  1  0
 31 60  1  0
 36 61  1  0
 38 62  1  0
M  END
>  <meeko>  (195) 
{"is_sidechain": [true], "free_energy": -13.8, "intermolecular_energy": 0.0, "internal_energy": -13.8, "cluster_size": 11, "cluster_id": 1, "rank_in_cluster": 1}

>  <_RMSD_MCS_to_ref>  (195) 
1.7027582422584095

$$$$
ligand
     RDKit          3D

 56 60  0  0  0  0  0  0  0  0999 V2000
   24.8540    9.4020    7.6050 C   0  0  0  0  0  0  0  0  0  0  0  0
   25.5230   10.7550    7.4270 C   0  0  0  0  0  0  0  0  0  0  0  0
   25.1850   11.3810    6.1200 C   0  0  0  0  0  0  0  0  0  0  0  0
   24.5600   12.5870    5.8700 C   0  0  0  0  0  0  0  0  0  0  0  0
   24.5090   12.6590    4.5060 N   0  0  0  0  0  0  0  0  0  0  0  0
   23.8510   13.9290    3.6160 S   0  0  0  0  0  6  0  0  0  0  0  0
   24.3240   13.7640    2.2520 O   0  0  0  0  0  0  0  0  0  0  0  0
   22.4290   13.8450    3.9080 O   0  0  0  0  0  0  0  0  0  0  0  0
   24.3760   15.3460    4.2170 O   0  0  0  0  0  0  0  0  0  0  0  0
   25.2660   15.3610    5.2610 C   0  0  0  0  0  0  0  0  0  0  0  0
   24.7650   15.6820    6.5130 C   0  0  0  0  0  0  0  0  0  0  0  0
   25.6310   15.6650    7.6130 C   0  0  0  0  0  0  0  0  0  0  0  0
   25.1510   16.0080    8.9610 C   0  0  0  0  0  0  0  0  0  0  0  0
   23.9640   15.4240    9.4710 C   0  0  0  0  0  0  0  0  0  0  0  0
   23.4890   15.7290   10.7500 C   0  0  0  0  0  0  0  0  0  0  0  0
   24.2210   16.6270   11.5000 C   0  0  0  0  0  0  0  0  0  0  0  0
   25.3910   17.2170   11.0330 C   0  0  0  0  0  0  0  0  0  0  0  0
   25.8670   16.9170    9.7660 C   0  0  0  0  0  0  0  0  0  0  0  0
   25.9640   18.1080   12.0820 C   0  0  0  0  0  0  0  0  0  0  0  0
   24.9550   18.0590   13.1310 N   0  0  0  0  0  0  0  0  0  0  0  0
   25.2090   18.6200   14.4550 C   0  0  1  0  0  0  0  0  0  0  0  0
   26.3080   17.8950   15.2310 C   0  0  0  0  0  0  0  0  0  0  0  0
   26.4440   18.5190   16.6110 C   0  0  0  0  0  0  0  0  0  0  0  0
   26.7270   20.0010   16.5170 C   0  0  0  0  0  0  0  0  0  0  0  0
   27.2740   20.6210   17.4230 O   0  0  0  0  0  0  0  0  0  0  0  0
   26.2630   20.6460   15.3980 N   0  0  0  0  0  0  0  0  0  0  0  0
   25.5100   20.1250   14.3720 C   0  0  0  0  0  0  0  0  0  0  0  0
   25.0330   20.8660   13.5120 O   0  0  0  0  0  0  0  0  0  0  0  0
   23.9710   17.1200   12.8590 C   0  0  0  0  0  0  0  0  0  0  0  0
   23.0690   16.7350   13.5770 O   0  0  0  0  0  0  0  0  0  0  0  0
   26.9650   15.3120    7.3870 C   0  0  0  0  0  0  0  0  0  0  0  0
   27.3680   14.9970    6.1000 C   0  0  0  0  0  0  0  0  0  0  0  0
   26.5420   15.0100    5.0330 N   0  0  0  0  0  0  0  0  0  0  0  0
   25.0800   11.5460    3.9770 C   0  0  0  0  0  0  0  0  0  0  0  0
   25.5000   10.7440    4.9350 N   0  0  0  0  0  0  0  0  0  0  0  0
   24.7464    9.1845    8.6779 H   0  0  0  0  0  0  0  0  0  0  0  0
   23.8606    9.4192    7.1330 H   0  0  0  0  0  0  0  0  0  0  0  0
   25.4708    8.6230    7.1330 H   0  0  0  0  0  0  0  0  0  0  0  0
   25.1922   11.4230    8.2359 H   0  0  0  0  0  0  0  0  0  0  0  0
   26.6117   10.6001    7.4560 H   0  0  0  0  0  0  0  0  0  0  0  0
   24.1887   13.3208    6.6005 H   0  0  0  0  0  0  0  0  0  0  0  0
   23.7047   15.9457    6.6402 H   0  0  0  0  0  0  0  0  0  0  0  0
   23.4034   14.7139    8.8453 H   0  0  0  0  0  0  0  0  0  0  0  0
   22.5689   15.2717   11.1427 H   0  0  0  0  0  0  0  0  0  0  0  0
   26.7916   17.3823    9.3936 H   0  0  0  0  0  0  0  0  0  0  0  0
   26.9301   17.7253   12.4429 H   0  0  0  0  0  0  0  0  0  0  0  0
   26.1710   19.1270   11.7232 H   0  0  0  0  0  0  0  0  0  0  0  0
   24.2794   18.4687   15.0233 H   0  0  0  0  0  0  0  0  0  0  0  0
   26.0456   16.8316   15.3328 H   0  0  0  0  0  0  0  0  0  0  0  0
   27.2617   17.9850   14.6902 H   0  0  0  0  0  0  0  0  0  0  0  0
   25.5070   18.3675   17.1669 H   0  0  0  0  0  0  0  0  0  0  0  0
   27.2857   18.0365   17.1293 H   0  0  0  0  0  0  0  0  0  0  0  0
   26.5090   21.6429   15.3166 H   0  0  0  0  0  0  0  0  0  0  0  0
   27.6838   15.2849    8.2192 H   0  0  0  0  0  0  0  0  0  0  0  0
   28.4204   14.7207    5.9385 H   0  0  0  0  0  0  0  0  0  0  0  0
   25.1781   11.3425    2.9005 H   0  0  0  0  0  0  0  0  0  0  0  0
  1  2  1  0
  2  3  1  0
  3  4  2  0
  4  5  1  0
  5  6  1  0
  6  7  2  0
  6  8  2  0
  6  9  1  0
  9 10  1  0
 10 11  2  0
 11 12  1  0
 12 13  1  0
 13 14  2  0
 14 15  1  0
 15 16  2  0
 16 17  1  0
 17 18  2  0
 17 19  1  0
 19 20  1  0
 20 21  1  0
 21 22  1  0
 22 23  1  0
 23 24  1  0
 24 25  2  0
 24 26  1  0
 26 27  1  0
 27 28  2  0
 20 29  1  0
 29 30  2  0
 12 31  2  0
 31 32  1  0
 32 33  2  0
  5 34  1  0
 34 35  2  0
 35  3  1  0
 33 10  1  0
 18 13  1  0
 27 21  1  0
 29 16  1  0
  1 36  1  0
  1 37  1  0
  1 38  1  0
  2 39  1  0
  2 40  1  0
  4 41  1  0
 11 42  1  0
 14 43  1  0
 15 44  1  0
 18 45  1  0
 19 46  1  0
 19 47  1  0
 21 48  1  1
 22 49  1  0
 22 50  1  0
 23 51  1  0
 23 52  1  0
 26 53  1  0
 31 54  1  0
 32 55  1  0
 34 56  1  0
M  END
>  <meeko>  (196) 
{"is_sidechain": [true], "free_energy": -13.79, "intermolecular_energy": 0.0, "internal_energy": -13.79, "cluster_size": 16, "cluster_id": 1, "rank_in_cluster": 1}

>  <_RMSD_MCS_to_ref>  (196) 
0.4415643906737845

$$$$
ligand
     RDKit          3D

 60 65  0  0  0  0  0  0  0  0999 V2000
   24.8540    9.4020    7.6050 C   0  0  0  0  0  0  0  0  0  0  0  0
   25.5230   10.7550    7.4270 C   0  0  0  0  0  0  0  0  0  0  0  0
   25.2300   11.3530    6.0960 C   0  0  0  0  0  0  0  0  0  0  0  0
   26.0000   12.2210    5.3470 C   0  0  0  0  0  0  0  0  0  0  0  0
   25.2670   12.4190    4.2120 N   0  0  0  0  0  0  0  0  0  0  0  0
   25.6900   13.4240    2.9310 S   0  0  0  0  0  6  0  0  0  0  0  0
   26.7460   12.7330    2.2090 O   0  0  0  0  0  0  0  0  0  0  0  0
   24.4230   13.7110    2.2850 O   0  0  0  0  0  0  0  0  0  0  0  0
   26.2550   14.8320    3.5490 O   0  0  0  0  0  0  0  0  0  0  0  0
   26.0550   15.1010    4.8800 C   0  0  0  0  0  0  0  0  0  0  0  0
   24.7930   15.4730    5.2870 C   0  0  0  0  0  0  0  0  0  0  0  0
   24.4900   15.7410    6.5670 N   0  0  0  0  0  0  0  0  0  0  0  0
   25.4900   15.6370    7.4940 C   0  0  0  0  0  0  0  0  0  0  0  0
   25.0510   15.9690    8.8730 C   0  0  0  0  0  0  0  0  0  0  0  0
   23.8680   15.3810    9.4020 C   0  0  0  0  0  0  0  0  0  0  0  0
   23.4120   15.6640   10.6940 C   0  0  0  0  0  0  0  0  0  0  0  0
   24.1510   16.5540   11.4430 C   0  0  0  0  0  0  0  0  0  0  0  0
   25.3070   17.1600   10.9610 C   0  0  0  0  0  0  0  0  0  0  0  0
   25.7650   16.8800    9.6830 C   0  0  0  0  0  0  0  0  0  0  0  0
   25.8890   18.0490   12.0080 C   0  0  0  0  0  0  0  0  0  0  0  0
   24.8980   17.9810   13.0740 N   0  0  0  0  0  0  0  0  0  0  0  0
   25.1630   18.5460   14.3920 C   0  0  1  0  0  0  0  0  0  0  0  0
   26.2970   17.8500   15.1440 C   0  0  0  0  0  0  0  0  0  0  0  0
   26.4460   18.4760   16.5220 C   0  0  0  0  0  0  0  0  0  0  0  0
   26.6880   19.9640   16.4240 C   0  0  0  0  0  0  0  0  0  0  0  0
   27.2320   20.5990   17.3240 O   0  0  0  0  0  0  0  0  0  0  0  0
   26.1910   20.5980   15.3130 N   0  0  0  0  0  0  0  0  0  0  0  0
   25.4220   20.0590   14.3060 C   0  0  0  0  0  0  0  0  0  0  0  0
   24.8990   20.7910   13.4670 O   0  0  0  0  0  0  0  0  0  0  0  0
   23.9200   17.0330   12.8110 C   0  0  0  0  0  0  0  0  0  0  0  0
   23.0370   16.6340   13.5440 O   0  0  0  0  0  0  0  0  0  0  0  0
   26.8030   15.2400    7.1800 C   0  0  0  0  0  0  0  0  0  0  0  0
   27.8010   15.0980    8.1000 N   0  0  0  0  0  0  0  0  0  0  0  0
   29.0100   14.6840    7.6640 C   0  0  0  0  0  0  0  0  0  0  0  0
   29.2470   14.4130    6.3390 C   0  0  0  0  0  0  0  0  0  0  0  0
   28.2830   14.5450    5.4020 N   0  0  0  0  0  0  0  0  0  0  0  0
   27.0650   14.9600    5.8190 C   0  0  0  0  0  0  0  0  0  0  0  0
   24.0910   11.7470    4.3150 C   0  0  0  0  0  0  0  0  0  0  0  0
   24.0470   11.0640    5.4400 N   0  0  0  0  0  0  0  0  0  0  0  0
   24.7464    9.1845    8.6779 H   0  0  0  0  0  0  0  0  0  0  0  0
   23.8606    9.4192    7.1330 H   0  0  0  0  0  0  0  0  0  0  0  0
   25.4708    8.6230    7.1330 H   0  0  0  0  0  0  0  0  0  0  0  0
   25.1591   11.4365    8.2100 H   0  0  0  0  0  0  0  0  0  0  0  0
   26.6106   10.6077    7.5004 H   0  0  0  0  0  0  0  0  0  0  0  0
   26.9781   12.6531    5.6051 H   0  0  0  0  0  0  0  0  0  0  0  0
   23.9988   15.5540    4.5303 H   0  0  0  0  0  0  0  0  0  0  0  0
   23.2942   14.6822    8.7755 H   0  0  0  0  0  0  0  0  0  0  0  0
   22.5013   15.1955   11.0954 H   0  0  0  0  0  0  0  0  0  0  0  0
   26.6770   17.3632    9.3026 H   0  0  0  0  0  0  0  0  0  0  0  0
   26.8649   17.6735   12.3493 H   0  0  0  0  0  0  0  0  0  0  0  0
   26.0795   19.0730   11.6542 H   0  0  0  0  0  0  0  0  0  0  0  0
   24.2494   18.3689   14.9784 H   0  0  0  0  0  0  0  0  0  0  0  0
   26.0651   16.7799   15.2498 H   0  0  0  0  0  0  0  0  0  0  0  0
   27.2362   17.9662   14.5834 H   0  0  0  0  0  0  0  0  0  0  0  0
   25.5253   18.2996   17.0975 H   0  0  0  0  0  0  0  0  0  0  0  0
   27.3108   18.0151   17.0218 H   0  0  0  0  0  0  0  0  0  0  0  0
   26.4210   21.5978   15.2213 H   0  0  0  0  0  0  0  0  0  0  0  0
   29.8272   14.5605    8.3900 H   0  0  0  0  0  0  0  0  0  0  0  0
   30.2492   14.0793    6.0321 H   0  0  0  0  0  0  0  0  0  0  0  0
   23.2878   11.7701    3.5638 H   0  0  0  0  0  0  0  0  0  0  0  0
  1  2  1  0
  2  3  1  0
  3  4  2  0
  4  5  1  0
  5  6  1  0
  6  7  2  0
  6  8  2  0
  6  9  1  0
  9 10  1  0
 10 11  2  0
 11 12  1  0
 12 13  2  0
 13 14  1  0
 14 15  2  0
 15 16  1  0
 16 17  2  0
 17 18  1  0
 18 19  2  0
 18 20  1  0
 20 21  1  0
 21 22  1  0
 22 23  1  0
 23 24  1  0
 24 25  1  0
 25 26  2  0
 25 27  1  0
 27 28  1  0
 28 29  2  0
 21 30  1  0
 30 31  2  0
 13 32  1  0
 32 33  2  0
 33 34  1  0
 34 35  2  0
 35 36  1  0
 36 37  2  0
  5 38  1  0
 38 39  2  0
 39  3  1  0
 37 10  1  0
 19 14  1  0
 28 22  1  0
 37 32  1  0
 30 17  1  0
  1 40  1  0
  1 41  1  0
  1 42  1  0
  2 43  1  0
  2 44  1  0
  4 45  1  0
 11 46  1  0
 15 47  1  0
 16 48  1  0
 19 49  1  0
 20 50  1  0
 20 51  1  0
 22 52  1  1
 23 53  1  0
 23 54  1  0
 24 55  1  0
 24 56  1  0
 27 57  1  0
 34 58  1  0
 35 59  1  0
 38 60  1  0
M  END
>  <meeko>  (197) 
{"is_sidechain": [true], "free_energy": -13.79, "intermolecular_energy": 0.0, "internal_energy": -13.79, "cluster_size": 18, "cluster_id": 1, "rank_in_cluster": 1}

>  <_RMSD_MCS_to_ref>  (197) 
0.4191832004691454

$$$$
ligand
     RDKit          3D

 59 63  0  0  0  0  0  0  0  0999 V2000
   24.8710    9.6160    7.7820 C   0  0  0  0  0  0  0  0  0  0  0  0
   25.4240   10.9650    7.3490 C   0  0  0  0  0  0  0  0  0  0  0  0
   26.8980   10.9300    7.1480 C   0  0  0  0  0  0  0  0  0  0  0  0
   27.6730   11.6650    6.2740 C   0  0  0  0  0  0  0  0  0  0  0  0
   28.9450   11.2220    6.4990 N   0  0  0  0  0  0  0  0  0  0  0  0
   30.3490   11.9070    5.8810 S   0  0  0  0  0  6  0  0  0  0  0  0
   31.2790   10.8100    5.6990 O   0  0  0  0  0  0  0  0  0  0  0  0
   29.9250   12.7500    4.7810 O   0  0  0  0  0  0  0  0  0  0  0  0
   30.9200   12.9440    7.1950 C   0  0  0  0  0  0  0  0  0  0  0  0
   32.2950   13.1930    7.3200 C   0  0  0  0  0  0  0  0  0  0  0  0
   32.7780   14.0130    8.3520 C   0  0  0  0  0  0  0  0  0  0  0  0
   31.8990   14.5850    9.2740 C   0  0  0  0  0  0  0  0  0  0  0  0
   30.5470   14.3190    9.1500 C   0  0  0  0  0  0  0  0  0  0  0  0
   30.0550   13.5010    8.1240 C   0  0  0  0  0  0  0  0  0  0  0  0
   28.5720   13.4140    8.2940 C   0  0  0  0  0  0  0  0  0  0  0  0
   28.4290   14.3010    9.5120 C   0  0  0  0  0  0  0  0  0  0  0  0
   27.0700   14.5660   10.1080 C   0  0  0  0  0  0  0  0  0  0  0  0
   26.1890   13.7440    9.9210 O   0  0  0  0  0  0  0  0  0  0  0  0
   27.0390   15.7490   10.8080 N   0  0  0  0  0  0  0  0  0  0  0  0
   25.9510   16.3240   11.4860 C   0  0  0  0  0  0  0  0  0  0  0  0
   24.6780   16.1180   10.9470 C   0  0  0  0  0  0  0  0  0  0  0  0
   23.5510   16.6630   11.5640 C   0  0  0  0  0  0  0  0  0  0  0  0
   23.6860   17.4180   12.7270 C   0  0  0  0  0  0  0  0  0  0  0  0
   24.9510   17.6280   13.2940 C   0  0  0  0  0  0  0  0  0  0  0  0
   25.1360   18.4690   14.5470 C   0  0  1  0  0  0  0  0  0  0  0  0
   26.1780   17.8190   15.4640 C   0  0  0  0  0  0  0  0  0  0  0  0
   26.3120   18.6230   16.7460 C   0  0  0  0  0  0  0  0  0  0  0  0
   26.6720   20.0560   16.4510 C   0  0  0  0  0  0  0  0  0  0  0  0
   27.2780   20.7610   17.2530 O   0  0  0  0  0  0  0  0  0  0  0  0
   26.2340   20.5620   15.2530 N   0  0  0  0  0  0  0  0  0  0  0  0
   25.5100   19.9260   14.2720 C   0  0  0  0  0  0  0  0  0  0  0  0
   25.1600   20.5520   13.2740 O   0  0  0  0  0  0  0  0  0  0  0  0
   26.0790   17.0800   12.6550 C   0  0  0  0  0  0  0  0  0  0  0  0
   29.5350   14.8070    9.9940 N   0  0  0  0  0  0  0  0  0  0  0  0
   28.9240   10.2940    7.4900 C   0  0  0  0  0  0  0  0  0  0  0  0
   27.6900   10.0880    7.9030 N   0  0  0  0  0  0  0  0  0  0  0  0
   24.8497    9.5640    8.8806 H   0  0  0  0  0  0  0  0  0  0  0  0
   23.8507    9.4948    7.3893 H   0  0  0  0  0  0  0  0  0  0  0  0
   25.5127    8.8135    7.3893 H   0  0  0  0  0  0  0  0  0  0  0  0
   24.9444   11.2574    6.4033 H   0  0  0  0  0  0  0  0  0  0  0  0
   25.2092   11.6901    8.1478 H   0  0  0  0  0  0  0  0  0  0  0  0
   27.3417   12.4326    5.5592 H   0  0  0  0  0  0  0  0  0  0  0  0
   32.9991   12.7428    6.6048 H   0  0  0  0  0  0  0  0  0  0  0  0
   33.8577   14.2065    8.4350 H   0  0  0  0  0  0  0  0  0  0  0  0
   32.2731   15.2325   10.0807 H   0  0  0  0  0  0  0  0  0  0  0  0
   28.0316   13.8154    7.4241 H   0  0  0  0  0  0  0  0  0  0  0  0
   28.1631   12.3978    8.3945 H   0  0  0  0  0  0  0  0  0  0  0  0
   27.9218   16.2787   10.8392 H   0  0  0  0  0  0  0  0  0  0  0  0
   24.5635   15.5219   10.0297 H   0  0  0  0  0  0  0  0  0  0  0  0
   22.5537   16.4960   11.1309 H   0  0  0  0  0  0  0  0  0  0  0  0
   22.7946   17.8521   13.2034 H   0  0  0  0  0  0  0  0  0  0  0  0
   24.1546   18.4989   15.0430 H   0  0  0  0  0  0  0  0  0  0  0  0
   25.8609   16.7943   15.7076 H   0  0  0  0  0  0  0  0  0  0  0  0
   27.1494   17.7950   14.9484 H   0  0  0  0  0  0  0  0  0  0  0  0
   25.3553   18.5970   17.2883 H   0  0  0  0  0  0  0  0  0  0  0  0
   27.1132   18.1792   17.3552 H   0  0  0  0  0  0  0  0  0  0  0  0
   26.4790   21.5445   15.0643 H   0  0  0  0  0  0  0  0  0  0  0  0
   27.0782   17.2494   13.0826 H   0  0  0  0  0  0  0  0  0  0  0  0
   29.8128    9.7854    7.8917 H   0  0  0  0  0  0  0  0  0  0  0  0
  1  2  1  0
  2  3  1  0
  3  4  2  0
  4  5  1  0
  5  6  1  0
  6  7  2  0
  6  8  2  0
  6  9  1  0
  9 10  2  0
 10 11  1  0
 11 12  2  0
 12 13  1  0
 13 14  2  0
 14 15  1  0
 15 16  1  0
 16 17  1  0
 17 18  2  0
 17 19  1  0
 19 20  1  0
 20 21  2  0
 21 22  1  0
 22 23  2  0
 23 24  1  0
 24 25  1  0
 25 26  1  0
 26 27  1  0
 27 28  1  0
 28 29  2  0
 28 30  1  0
 30 31  1  0
 31 32  2  0
 24 33  2  0
 16 34  2  0
  5 35  1  0
 35 36  2  0
 36  3  1  0
 14  9  1  0
 33 20  1  0
 34 13  1  0
 31 25  1  0
  1 37  1  0
  1 38  1  0
  1 39  1  0
  2 40  1  0
  2 41  1  0
  4 42  1  0
 10 43  1  0
 11 44  1  0
 12 45  1  0
 15 46  1  0
 15 47  1  0
 19 48  1  0
 21 49  1  0
 22 50  1  0
 23 51  1  0
 25 52  1  1
 26 53  1  0
 26 54  1  0
 27 55  1  0
 27 56  1  0
 30 57  1  0
 33 58  1  0
 35 59  1  0
M  END
>  <meeko>  (198) 
{"is_sidechain": [true], "free_energy": -13.79, "intermolecular_energy": 0.0, "internal_energy": -13.79, "cluster_size": 16, "cluster_id": 1, "rank_in_cluster": 1}

>  <_RMSD_MCS_to_ref>  (198) 
0.502881695829149

$$$$
ligand
     RDKit          3D

 62 67  0  0  0  0  0  0  0  0999 V2000
   24.8710    9.6160    7.7820 C   0  0  0  0  0  0  0  0  0  0  0  0
   25.4240   10.9650    7.3490 C   0  0  0  0  0  0  0  0  0  0  0  0
   26.8410   11.1510    7.7680 C   0  0  0  0  0  0  0  0  0  0  0  0
   27.3330   11.6820    8.9440 C   0  0  0  0  0  0  0  0  0  0  0  0
   28.6890   11.6210    8.7970 N   0  0  0  0  0  0  0  0  0  0  0  0
   29.8230   12.3780    9.7970 S   0  0  0  0  0  6  0  0  0  0  0  0
   29.4890   11.9040   11.1270 O   0  0  0  0  0  0  0  0  0  0  0  0
   31.1110   12.0890    9.1940 O   0  0  0  0  0  0  0  0  0  0  0  0
   29.5740   13.9980    9.7630 O   0  0  0  0  0  0  0  0  0  0  0  0
   28.4730   14.5010    9.1150 C   0  0  0  0  0  0  0  0  0  0  0  0
   27.2860   14.7120    9.8200 C   0  0  0  0  0  0  0  0  0  0  0  0
   26.1860   15.2970    9.1830 C   0  0  0  0  0  0  0  0  0  0  0  0
   24.9620   15.5940    9.9270 C   0  0  0  0  0  0  0  0  0  0  0  0
   23.6930   15.2810    9.4030 C   0  0  0  0  0  0  0  0  0  0  0  0
   22.5090   15.5810   10.1070 C   0  0  0  0  0  0  0  0  0  0  0  0
   22.5640   16.2010   11.3540 C   0  0  0  0  0  0  0  0  0  0  0  0
   23.8140   16.4930   11.8620 C   0  0  0  0  0  0  0  0  0  0  0  0
   24.9950   16.2020   11.1780 C   0  0  0  0  0  0  0  0  0  0  0  0
   26.1660   16.6490   11.9910 C   0  0  0  0  0  0  0  0  0  0  0  0
   25.5480   17.1180   13.2220 N   0  0  0  0  0  0  0  0  0  0  0  0
   26.3280   17.8280   14.2280 C   0  0  2  0  0  0  0  0  0  0  0  0
   25.7710   17.6990   15.6450 C   0  0  0  0  0  0  0  0  0  0  0  0
   26.6950   18.4170   16.6160 C   0  0  0  0  0  0  0  0  0  0  0  0
   26.8780   19.8660   16.2280 C   0  0  0  0  0  0  0  0  0  0  0  0
   27.2080   20.7250   17.0410 O   0  0  0  0  0  0  0  0  0  0  0  0
   26.7360   20.1710   14.8970 N   0  0  0  0  0  0  0  0  0  0  0  0
   26.5040   19.3070   13.8510 C   0  0  0  0  0  0  0  0  0  0  0  0
   26.5460   19.7140   12.6900 O   0  0  0  0  0  0  0  0  0  0  0  0
   24.1660   17.1310   13.1360 C   0  0  0  0  0  0  0  0  0  0  0  0
   23.3600   17.5810   13.9270 O   0  0  0  0  0  0  0  0  0  0  0  0
   26.2870   15.6240    7.8210 C   0  0  0  0  0  0  0  0  0  0  0  0
   27.4620   15.3760    7.0910 C   0  0  0  0  0  0  0  0  0  0  0  0
   27.5580   15.6990    5.7310 C   0  0  0  0  0  0  0  0  0  0  0  0
   28.7430   15.4390    5.0640 C   0  0  0  0  0  0  0  0  0  0  0  0
   29.8240   14.8840    5.6470 N   0  0  0  0  0  0  0  0  0  0  0  0
   29.7110   14.5700    6.9580 C   0  0  0  0  0  0  0  0  0  0  0  0
   28.5690   14.7980    7.7390 C   0  0  0  0  0  0  0  0  0  0  0  0
   28.9810   11.0870    7.5830 C   0  0  0  0  0  0  0  0  0  0  0  0
   27.8770   10.7910    6.9280 N   0  0  0  0  0  0  0  0  0  0  0  0
   24.8497    9.5640    8.8806 H   0  0  0  0  0  0  0  0  0  0  0  0
   23.8507    9.4948    7.3893 H   0  0  0  0  0  0  0  0  0  0  0  0
   25.5127    8.8135    7.3893 H   0  0  0  0  0  0  0  0  0  0  0  0
   25.3661   11.0367    6.2529 H   0  0  0  0  0  0  0  0  0  0  0  0
   24.8224   11.7485    7.8329 H   0  0  0  0  0  0  0  0  0  0  0  0
   26.7629   12.0662    9.8027 H   0  0  0  0  0  0  0  0  0  0  0  0
   27.2157   14.4179   10.8776 H   0  0  0  0  0  0  0  0  0  0  0  0
   23.6239   14.7906    8.4208 H   0  0  0  0  0  0  0  0  0  0  0  0
   21.5336   15.3236    9.6684 H   0  0  0  0  0  0  0  0  0  0  0  0
   21.6482   16.4478   11.9111 H   0  0  0  0  0  0  0  0  0  0  0  0
   26.8537   15.8131   12.1871 H   0  0  0  0  0  0  0  0  0  0  0  0
   26.7741   17.4170   11.4906 H   0  0  0  0  0  0  0  0  0  0  0  0
   27.3126   17.3375   14.2383 H   0  0  0  0  0  0  0  0  0  0  0  0
   24.7692   18.1513   15.6885 H   0  0  0  0  0  0  0  0  0  0  0  0
   25.7034   16.6358   15.9188 H   0  0  0  0  0  0  0  0  0  0  0  0
   26.2618   18.3682   17.6259 H   0  0  0  0  0  0  0  0  0  0  0  0
   27.6777   17.9233   16.5906 H   0  0  0  0  0  0  0  0  0  0  0  0
   26.8124   21.1683   14.6511 H   0  0  0  0  0  0  0  0  0  0  0  0
   25.4266   16.0849    7.3138 H   0  0  0  0  0  0  0  0  0  0  0  0
   26.7062   16.1515    5.2022 H   0  0  0  0  0  0  0  0  0  0  0  0
   28.8058   15.7003    3.9973 H   0  0  0  0  0  0  0  0  0  0  0  0
   30.5780   14.1018    7.4469 H   0  0  0  0  0  0  0  0  0  0  0  0
   29.9990   10.9241    7.1995 H   0  0  0  0  0  0  0  0  0  0  0  0
  1  2  1  0
  2  3  1  0
  3  4  2  0
  4  5  1  0
  5  6  1  0
  6  7  2  0
  6  8  2  0
  6  9  1  0
  9 10  1  0
 10 11  2  0
 11 12  1  0
 12 13  1  0
 13 14  2  0
 14 15  1  0
 15 16  2  0
 16 17  1  0
 17 18  2  0
 18 19  1  0
 19 20  1  0
 20 21  1  0
 21 22  1  0
 22 23  1  0
 23 24  1  0
 24 25  2  0
 24 26  1  0
 26 27  1  0
 27 28  2  0
 20 29  1  0
 29 30  2  0
 12 31  2  0
 31 32  1  0
 32 33  2  0
 33 34  1  0
 34 35  2  0
 35 36  1  0
 36 37  2  0
  5 38  1  0
 38 39  2  0
 39  3  1  0
 37 10  1  0
 18 13  1  0
 27 21  1  0
 37 32  1  0
 29 17  1  0
  1 40  1  0
  1 41  1  0
  1 42  1  0
  2 43  1  0
  2 44  1  0
  4 45  1  0
 11 46  1  0
 14 47  1  0
 15 48  1  0
 16 49  1  0
 19 50  1  0
 19 51  1  0
 21 52  1  1
 22 53  1  0
 22 54  1  0
 23 55  1  0
 23 56  1  0
 26 57  1  0
 31 58  1  0
 33 59  1  0
 34 60  1  0
 36 61  1  0
 38 62  1  0
M  END
>  <meeko>  (199) 
{"is_sidechain": [true], "free_energy": -13.79, "intermolecular_energy": 0.0, "internal_energy": -13.79, "cluster_size": 13, "cluster_id": 1, "rank_in_cluster": 1}

>  <_RMSD_MCS_to_ref>  (199) 
1.2134970814413466

$$$$
ligand
     RDKit          3D

 61 66  0  0  0  0  0  0  0  0999 V2000
   24.8710    9.6170    7.7820 C   0  0  0  0  0  0  0  0  0  0  0  0
   25.4240   10.9640    7.3490 C   0  0  0  0  0  0  0  0  0  0  0  0
   26.8660   11.1150    7.6910 C   0  0  0  0  0  0  0  0  0  0  0  0
   27.4390   11.7610    8.7680 C   0  0  0  0  0  0  0  0  0  0  0  0
   28.7800   11.5610    8.6070 N   0  0  0  0  0  0  0  0  0  0  0  0
   30.0150   12.3410    9.4580 S   0  0  0  0  0  6  0  0  0  0  0  0
   31.1730   11.4900    9.2570 O   0  0  0  0  0  0  0  0  0  0  0  0
   29.4740   12.5820   10.7820 O   0  0  0  0  0  0  0  0  0  0  0  0
   30.3010   13.7710    8.7150 O   0  0  0  0  0  0  0  0  0  0  0  0
   29.4430   14.1810    7.7380 C   0  0  0  0  0  0  0  0  0  0  0  0
   29.7590   14.1020    6.3980 C   0  0  0  0  0  0  0  0  0  0  0  0
   28.9170   14.4980    5.4160 N   0  0  0  0  0  0  0  0  0  0  0  0
   27.7130   14.9930    5.7590 C   0  0  0  0  0  0  0  0  0  0  0  0
   26.8530   15.3850    4.7520 C   0  0  0  0  0  0  0  0  0  0  0  0
   25.6140   15.8960    5.0790 C   0  0  0  0  0  0  0  0  0  0  0  0
   25.1870   16.0600    6.3430 N   0  0  0  0  0  0  0  0  0  0  0  0
   26.0280   15.6940    7.3420 C   0  0  0  0  0  0  0  0  0  0  0  0
   25.5150   15.9890    8.6920 C   0  0  0  0  0  0  0  0  0  0  0  0
   24.2770   15.4500    9.1240 C   0  0  0  0  0  0  0  0  0  0  0  0
   23.7740   15.7090   10.4040 C   0  0  0  0  0  0  0  0  0  0  0  0
   24.5300   16.5120   11.2330 C   0  0  0  0  0  0  0  0  0  0  0  0
   25.7400   17.0700   10.8360 C   0  0  0  0  0  0  0  0  0  0  0  0
   26.2360   16.8280    9.5670 C   0  0  0  0  0  0  0  0  0  0  0  0
   26.3040   17.9090   11.9330 C   0  0  0  0  0  0  0  0  0  0  0  0
   25.3590   17.6860   13.0200 N   0  0  0  0  0  0  0  0  0  0  0  0
   25.4070   18.4870   14.2380 C   0  0  2  0  0  0  0  0  0  0  0  0
   26.0470   19.8610   14.0460 C   0  0  0  0  0  0  0  0  0  0  0  0
   25.9880   20.6310   15.3560 C   0  0  0  0  0  0  0  0  0  0  0  0
   26.6590   19.8660   16.4720 C   0  0  0  0  0  0  0  0  0  0  0  0
   27.1010   20.4220   17.4730 O   0  0  0  0  0  0  0  0  0  0  0  0
   26.6780   18.4980   16.3570 N   0  0  0  0  0  0  0  0  0  0  0  0
   26.1000   17.7230   15.3780 C   0  0  0  0  0  0  0  0  0  0  0  0
   26.0640   16.4990   15.4970 O   0  0  0  0  0  0  0  0  0  0  0  0
   24.2580   16.9490   12.6080 C   0  0  0  0  0  0  0  0  0  0  0  0
   23.2410   16.6980   13.2240 O   0  0  0  0  0  0  0  0  0  0  0  0
   27.3000   15.1240    7.0980 C   0  0  0  0  0  0  0  0  0  0  0  0
   28.1930   14.6670    8.0930 C   0  0  0  0  0  0  0  0  0  0  0  0
   28.9910   10.8860    7.4460 C   0  0  0  0  0  0  0  0  0  0  0  0
   27.8460   10.5980    6.8630 N   0  0  0  0  0  0  0  0  0  0  0  0
   24.8498    9.5653    8.8806 H   0  0  0  0  0  0  0  0  0  0  0  0
   23.8505    9.4962    7.3895 H   0  0  0  0  0  0  0  0  0  0  0  0
   25.5122    8.8140    7.3895 H   0  0  0  0  0  0  0  0  0  0  0  0
   25.3058   11.0622    6.2598 H   0  0  0  0  0  0  0  0  0  0  0  0
   24.8657   11.7466    7.8837 H   0  0  0  0  0  0  0  0  0  0  0  0
   26.9307   12.3118    9.5731 H   0  0  0  0  0  0  0  0  0  0  0  0
   30.7420   13.6980    6.1143 H   0  0  0  0  0  0  0  0  0  0  0  0
   27.1534   15.2906    3.6980 H   0  0  0  0  0  0  0  0  0  0  0  0
   24.9384   16.1851    4.2605 H   0  0  0  0  0  0  0  0  0  0  0  0
   23.6988   14.8139    8.4377 H   0  0  0  0  0  0  0  0  0  0  0  0
   22.8133   15.2887   10.7362 H   0  0  0  0  0  0  0  0  0  0  0  0
   27.1829   17.2853    9.2440 H   0  0  0  0  0  0  0  0  0  0  0  0
   27.3145   17.5740   12.2100 H   0  0  0  0  0  0  0  0  0  0  0  0
   26.4160   18.9688   11.6605 H   0  0  0  0  0  0  0  0  0  0  0  0
   24.3579   18.6711   14.5128 H   0  0  0  0  0  0  0  0  0  0  0  0
   27.0961   19.7379   13.7392 H   0  0  0  0  0  0  0  0  0  0  0  0
   25.5020   20.4156   13.2680 H   0  0  0  0  0  0  0  0  0  0  0  0
   26.4974   21.5974   15.2270 H   0  0  0  0  0  0  0  0  0  0  0  0
   24.9317   20.7810   15.6237 H   0  0  0  0  0  0  0  0  0  0  0  0
   27.1873   17.9896   17.0939 H   0  0  0  0  0  0  0  0  0  0  0  0
   27.8964   14.6966    9.1518 H   0  0  0  0  0  0  0  0  0  0  0  0
   29.9810   10.6176    7.0487 H   0  0  0  0  0  0  0  0  0  0  0  0
  1  2  1  0
  2  3  1  0
  3  4  2  0
  4  5  1  0
  5  6  1  0
  6  7  2  0
  6  8  2  0
  6  9  1  0
  9 10  1  0
 10 11  2  0
 11 12  1  0
 12 13  2  0
 13 14  1  0
 14 15  2  0
 15 16  1  0
 16 17  2  0
 17 18  1  0
 18 19  2  0
 19 20  1  0
 20 21  2  0
 21 22  1  0
 22 23  2  0
 22 24  1  0
 24 25  1  0
 25 26  1  0
 26 27  1  0
 27 28  1  0
 28 29  1  0
 29 30  2  0
 29 31  1  0
 31 32  1  0
 32 33  2  0
 25 34  1  0
 34 35  2  0
 17 36  1  0
 36 37  2  0
  5 38  1  0
 38 39  2  0
 39  3  1  0
 37 10  1  0
 36 13  1  0
 23 18  1  0
 32 26  1  0
 34 21  1  0
  1 40  1  0
  1 41  1  0
  1 42  1  0
  2 43  1  0
  2 44  1  0
  4 45  1  0
 11 46  1  0
 14 47  1  0
 15 48  1  0
 19 49  1  0
 20 50  1  0
 23 51  1  0
 24 52  1  0
 24 53  1  0
 26 54  1  1
 27 55  1  0
 27 56  1  0
 28 57  1  0
 28 58  1  0
 31 59  1  0
 37 60  1  0
 38 61  1  0
M  END
>  <meeko>  (200) 
{"is_sidechain": [true], "free_energy": -13.79, "intermolecular_energy": 0.0, "internal_energy": -13.79, "cluster_size": 18, "cluster_id": 1, "rank_in_cluster": 1}

>  <_RMSD_MCS_to_ref>  (200) 
1.6465497898716324

$$$$
ligand
     RDKit          3D

 55 59  0  0  0  0  0  0  0  0999 V2000
   24.8540    9.4020    7.6050 C   0  0  0  0  0  0  0  0  0  0  0  0
   25.5230   10.7550    7.4270 C   0  0  0  0  0  0  0  0  0  0  0  0
   25.1720   11.4230    6.1410 C   0  0  0  0  0  0  0  0  0  0  0  0
   24.3960   12.5460    5.9280 C   0  0  0  0  0  0  0  0  0  0  0  0
   24.4180   12.7170    4.5740 N   0  0  0  0  0  0  0  0  0  0  0  0
   23.7190   13.9860    3.7100 S   0  0  0  0  0  6  0  0  0  0  0  0
   22.3000   13.8350    3.9700 O   0  0  0  0  0  0  0  0  0  0  0  0
   24.2380   13.8750    2.3570 O   0  0  0  0  0  0  0  0  0  0  0  0
   24.1830   15.4130    4.3380 O   0  0  0  0  0  0  0  0  0  0  0  0
   25.1120   15.3940    5.3370 C   0  0  0  0  0  0  0  0  0  0  0  0
   26.4470   15.1980    5.0300 C   0  0  0  0  0  0  0  0  0  0  0  0
   27.4130   15.2350    5.9740 N   0  0  0  0  0  0  0  0  0  0  0  0
   26.9820   15.4890    7.2370 C   0  0  0  0  0  0  0  0  0  0  0  0
   25.6410   15.7010    7.5600 C   0  0  0  0  0  0  0  0  0  0  0  0
   25.1540   15.9920    8.9210 C   0  0  0  0  0  0  0  0  0  0  0  0
   23.9540   15.4260    9.4260 C   0  0  0  0  0  0  0  0  0  0  0  0
   23.4820   15.7210   10.7110 C   0  0  0  0  0  0  0  0  0  0  0  0
   24.2250   16.5970   11.4770 C   0  0  0  0  0  0  0  0  0  0  0  0
   25.4050   17.1690   11.0210 C   0  0  0  0  0  0  0  0  0  0  0  0
   25.8790   16.8740    9.7540 C   0  0  0  0  0  0  0  0  0  0  0  0
   25.9830   18.0610   12.0670 C   0  0  0  0  0  0  0  0  0  0  0  0
   24.9640   18.0270   13.1080 N   0  0  0  0  0  0  0  0  0  0  0  0
   25.2100   18.6010   14.4250 C   0  0  1  0  0  0  0  0  0  0  0  0
   26.2860   17.8660   15.2240 C   0  0  0  0  0  0  0  0  0  0  0  0
   26.4190   18.5060   16.5970 C   0  0  0  0  0  0  0  0  0  0  0  0
   26.7290   19.9810   16.4870 C   0  0  0  0  0  0  0  0  0  0  0  0
   27.2860   20.6010   17.3880 O   0  0  0  0  0  0  0  0  0  0  0  0
   26.2850   20.6220   15.3580 N   0  0  0  0  0  0  0  0  0  0  0  0
   25.5410   20.0990   14.3250 C   0  0  0  0  0  0  0  0  0  0  0  0
   25.0970   20.8360   13.4450 O   0  0  0  0  0  0  0  0  0  0  0  0
   23.9690   17.0990   12.8310 C   0  0  0  0  0  0  0  0  0  0  0  0
   23.0550   16.7320   13.5420 O   0  0  0  0  0  0  0  0  0  0  0  0
   24.6890   15.6620    6.5870 N   0  0  0  0  0  0  0  0  0  0  0  0
   25.2320   11.7820    4.0200 C   0  0  0  0  0  0  0  0  0  0  0  0
   25.6770   10.9520    4.9420 N   0  0  0  0  0  0  0  0  0  0  0  0
   24.7464    9.1845    8.6779 H   0  0  0  0  0  0  0  0  0  0  0  0
   23.8606    9.4192    7.1330 H   0  0  0  0  0  0  0  0  0  0  0  0
   25.4708    8.6230    7.1330 H   0  0  0  0  0  0  0  0  0  0  0  0
   25.2137   11.4089    8.2557 H   0  0  0  0  0  0  0  0  0  0  0  0
   26.6093   10.5821    7.4179 H   0  0  0  0  0  0  0  0  0  0  0  0
   23.8785   13.1618    6.6783 H   0  0  0  0  0  0  0  0  0  0  0  0
   26.7307   15.0061    3.9847 H   0  0  0  0  0  0  0  0  0  0  0  0
   27.7270   15.5296    8.0453 H   0  0  0  0  0  0  0  0  0  0  0  0
   23.3790   14.7366    8.7903 H   0  0  0  0  0  0  0  0  0  0  0  0
   22.5544   15.2718   11.0955 H   0  0  0  0  0  0  0  0  0  0  0  0
   26.8168   17.3246    9.3969 H   0  0  0  0  0  0  0  0  0  0  0  0
   26.9424   17.6703   12.4369 H   0  0  0  0  0  0  0  0  0  0  0  0
   26.2060   19.0753   11.7043 H   0  0  0  0  0  0  0  0  0  0  0  0
   24.2704   18.4762   14.9832 H   0  0  0  0  0  0  0  0  0  0  0  0
   26.0019   16.8094   15.3373 H   0  0  0  0  0  0  0  0  0  0  0  0
   27.2472   17.9306   14.6931 H   0  0  0  0  0  0  0  0  0  0  0  0
   25.4738   18.3783   17.1450 H   0  0  0  0  0  0  0  0  0  0  0  0
   27.2470   18.0158   17.1301 H   0  0  0  0  0  0  0  0  0  0  0  0
   26.5397   21.6164   15.2732 H   0  0  0  0  0  0  0  0  0  0  0  0
   25.4847   11.7252    2.9509 H   0  0  0  0  0  0  0  0  0  0  0  0
  1  2  1  0
  2  3  1  0
  3  4  2  0
  4  5  1  0
  5  6  1  0
  6  7  2  0
  6  8  2  0
  6  9  1  0
  9 10  1  0
 10 11  2  0
 11 12  1  0
 12 13  2  0
 13 14  1  0
 14 15  1  0
 15 16  2  0
 16 17  1  0
 17 18  2  0
 18 19  1  0
 19 20  2  0
 19 21  1  0
 21 22  1  0
 22 23  1  0
 23 24  1  0
 24 25  1  0
 25 26  1  0
 26 27  2  0
 26 28  1  0
 28 29  1  0
 29 30  2  0
 22 31  1  0
 31 32  2  0
 14 33  2  0
  5 34  1  0
 34 35  2  0
 35  3  1  0
 33 10  1  0
 20 15  1  0
 29 23  1  0
 31 18  1  0
  1 36  1  0
  1 37  1  0
  1 38  1  0
  2 39  1  0
  2 40  1  0
  4 41  1  0
 11 42  1  0
 13 43  1  0
 16 44  1  0
 17 45  1  0
 20 46  1  0
 21 47  1  0
 21 48  1  0
 23 49  1  1
 24 50  1  0
 24 51  1  0
 25 52  1  0
 25 53  1  0
 28 54  1  0
 34 55  1  0
M  END
>  <meeko>  (201) 
{"is_sidechain": [true], "free_energy": -13.78, "intermolecular_energy": 0.0, "internal_energy": -13.78, "cluster_size": 17, "cluster_id": 1, "rank_in_cluster": 1}

>  <_RMSD_MCS_to_ref>  (201) 
0.44789085972167575

$$$$
ligand
     RDKit          3D

 62 66  0  0  0  0  0  0  0  0999 V2000
   24.8540    9.4020    7.6050 C   0  0  0  0  0  0  0  0  0  0  0  0
   25.5230   10.7550    7.4270 C   0  0  0  0  0  0  0  0  0  0  0  0
   25.4110   11.2570    6.0300 C   0  0  0  0  0  0  0  0  0  0  0  0
   26.3400   11.2020    5.0090 C   0  0  0  0  0  0  0  0  0  0  0  0
   25.7260   11.8280    3.9620 N   0  0  0  0  0  0  0  0  0  0  0  0
   26.4760   12.2950    2.5190 S   0  0  0  0  0  6  0  0  0  0  0  0
   26.9400   11.0440    1.9470 O   0  0  0  0  0  0  0  0  0  0  0  0
   25.4950   13.1170    1.8320 O   0  0  0  0  0  0  0  0  0  0  0  0
   27.7880   13.2050    2.8810 O   0  0  0  0  0  0  0  0  0  0  0  0
   27.7050   14.1180    3.8960 C   0  0  0  0  0  0  0  0  0  0  0  0
   27.0120   15.3000    3.6510 C   0  0  0  0  0  0  0  0  0  0  0  0
   26.9560   16.2820    4.6390 C   0  0  0  0  0  0  0  0  0  0  0  0
   27.5790   16.0800    5.8800 C   0  0  0  0  0  0  0  0  0  0  0  0
   27.5560   17.1700    6.9280 C   0  0  0  0  0  0  0  0  0  0  0  0
   26.5810   16.8820    7.9890 C   0  0  0  0  0  0  0  0  0  0  0  0
   25.7940   16.6210    8.8590 C   0  0  0  0  0  0  0  0  0  0  0  0
   24.8440   16.3270    9.8840 C   0  0  0  0  0  0  0  0  0  0  0  0
   23.7760   15.4530    9.6270 C   0  0  0  0  0  0  0  0  0  0  0  0
   22.8280   15.1530   10.6240 C   0  0  0  0  0  0  0  0  0  0  0  0
   22.9330   15.7210   11.8930 C   0  0  0  0  0  0  0  0  0  0  0  0
   23.9920   16.5820   12.1170 C   0  0  0  0  0  0  0  0  0  0  0  0
   24.9390   16.8920   11.1430 C   0  0  0  0  0  0  0  0  0  0  0  0
   25.9560   17.8300   11.7040 C   0  0  0  0  0  0  0  0  0  0  0  0
   25.4510   18.0790   13.0500 N   0  0  0  0  0  0  0  0  0  0  0  0
   26.2360   18.7310   14.0920 C   0  0  2  0  0  0  0  0  0  0  0  0
   26.0710   18.0670   15.4540 C   0  0  0  0  0  0  0  0  0  0  0  0
   26.9800   18.7450   16.4660 C   0  0  0  0  0  0  0  0  0  0  0  0
   26.7090   20.2290   16.5300 C   0  0  0  0  0  0  0  0  0  0  0  0
   26.7900   20.8680   17.5750 O   0  0  0  0  0  0  0  0  0  0  0  0
   26.3860   20.8450   15.3480 N   0  0  0  0  0  0  0  0  0  0  0  0
   25.8950   20.2260   14.2210 C   0  0  0  0  0  0  0  0  0  0  0  0
   25.2350   20.8650   13.4040 O   0  0  0  0  0  0  0  0  0  0  0  0
   24.3420   17.3040   13.3450 C   0  0  0  0  0  0  0  0  0  0  0  0
   23.7460   17.2130   14.4020 O   0  0  0  0  0  0  0  0  0  0  0  0
   28.2350   14.8650    6.1240 C   0  0  0  0  0  0  0  0  0  0  0  0
   28.2880   13.8790    5.1390 C   0  0  0  0  0  0  0  0  0  0  0  0
   24.4990   12.2550    4.3560 C   0  0  0  0  0  0  0  0  0  0  0  0
   24.2670   11.9070    5.6050 N   0  0  0  0  0  0  0  0  0  0  0  0
   24.7464    9.1845    8.6779 H   0  0  0  0  0  0  0  0  0  0  0  0
   23.8606    9.4192    7.1330 H   0  0  0  0  0  0  0  0  0  0  0  0
   25.4708    8.6230    7.1330 H   0  0  0  0  0  0  0  0  0  0  0  0
   25.0444   11.4787    8.1032 H   0  0  0  0  0  0  0  0  0  0  0  0
   26.5917   10.6370    7.6593 H   0  0  0  0  0  0  0  0  0  0  0  0
   27.3451   10.7557    5.0337 H   0  0  0  0  0  0  0  0  0  0  0  0
   26.5118   15.4583    2.6842 H   0  0  0  0  0  0  0  0  0  0  0  0
   26.4194   17.2223    4.4442 H   0  0  0  0  0  0  0  0  0  0  0  0
   28.5568   17.2546    7.3766 H   0  0  0  0  0  0  0  0  0  0  0  0
   27.2631   18.1106    6.4387 H   0  0  0  0  0  0  0  0  0  0  0  0
   23.6782   14.9955    8.6315 H   0  0  0  0  0  0  0  0  0  0  0  0
   21.9988   14.4657   10.4001 H   0  0  0  0  0  0  0  0  0  0  0  0
   22.2032   15.4936   12.6840 H   0  0  0  0  0  0  0  0  0  0  0  0
   26.9521   17.3644   11.7334 H   0  0  0  0  0  0  0  0  0  0  0  0
   26.0825   18.7457   11.1078 H   0  0  0  0  0  0  0  0  0  0  0  0
   27.2837   18.6238   13.7746 H   0  0  0  0  0  0  0  0  0  0  0  0
   25.0251   18.1594   15.7819 H   0  0  0  0  0  0  0  0  0  0  0  0
   26.3403   17.0033   15.3765 H   0  0  0  0  0  0  0  0  0  0  0  0
   26.8046   18.3044   17.4585 H   0  0  0  0  0  0  0  0  0  0  0  0
   28.0242   18.5931   16.1552 H   0  0  0  0  0  0  0  0  0  0  0  0
   26.5235   21.8646   15.2992 H   0  0  0  0  0  0  0  0  0  0  0  0
   28.7114   14.6882    7.0996 H   0  0  0  0  0  0  0  0  0  0  0  0
   28.7864   12.9196    5.3418 H   0  0  0  0  0  0  0  0  0  0  0  0
   23.7963   12.8139    3.7205 H   0  0  0  0  0  0  0  0  0  0  0  0
  1  2  1  0
  2  3  1  0
  3  4  2  0
  4  5  1  0
  5  6  1  0
  6  7  2  0
  6  8  2  0
  6  9  1  0
  9 10  1  0
 10 11  2  0
 11 12  1  0
 12 13  2  0
 13 14  1  0
 14 15  1  0
 15 16  3  0
 16 17  1  0
 17 18  2  0
 18 19  1  0
 19 20  2  0
 20 21  1  0
 21 22  2  0
 22 23  1  0
 23 24  1  0
 24 25  1  0
 25 26  1  0
 26 27  1  0
 27 28  1  0
 28 29  2  0
 28 30  1  0
 30 31  1  0
 31 32  2  0
 24 33  1  0
 33 34  2  0
 13 35  1  0
 35 36  2  0
  5 37  1  0
 37 38  2  0
 38  3  1  0
 36 10  1  0
 22 17  1  0
 31 25  1  0
 33 21  1  0
  1 39  1  0
  1 40  1  0
  1 41  1  0
  2 42  1  0
  2 43  1  0
  4 44  1  0
 11 45  1  0
 12 46  1  0
 14 47  1  0
 14 48  1  0
 18 49  1  0
 19 50  1  0
 20 51  1  0
 23 52  1  0
 23 53  1  0
 25 54  1  6
 26 55  1  0
 26 56  1  0
 27 57  1  0
 27 58  1  0
 30 59  1  0
 35 60  1  0
 36 61  1  0
 37 62  1  0
M  END
>  <meeko>  (202) 
{"is_sidechain": [true], "free_energy": -13.78, "intermolecular_energy": 0.0, "internal_energy": -13.78, "cluster_size": 3, "cluster_id": 2, "rank_in_cluster": 1}

>  <_RMSD_MCS_to_ref>  (202) 
0.8298435595540473

$$$$
ligand
     RDKit          3D

 59 64  0  0  0  0  0  0  0  0999 V2000
   24.8540    9.4020    7.6050 C   0  0  0  0  0  0  0  0  0  0  0  0
   25.5230   10.7550    7.4270 C   0  0  0  0  0  0  0  0  0  0  0  0
   26.8150   10.6520    6.6960 C   0  0  0  0  0  0  0  0  0  0  0  0
   27.2280   11.3230    5.5620 C   0  0  0  0  0  0  0  0  0  0  0  0
   28.4740   10.8220    5.3110 N   0  0  0  0  0  0  0  0  0  0  0  0
   29.5680   11.4200    4.1780 S   0  0  0  0  0  6  0  0  0  0  0  0
   30.8450   10.8490    4.5610 O   0  0  0  0  0  0  0  0  0  0  0  0
   28.9630   11.1230    2.8920 O   0  0  0  0  0  0  0  0  0  0  0  0
   29.6050   13.0260    4.3990 O   0  0  0  0  0  0  0  0  0  0  0  0
   28.7780   13.6340    5.2610 C   0  0  0  0  0  0  0  0  0  0  0  0
   28.7340   13.6270    6.6610 C   0  0  0  0  0  0  0  0  0  0  0  0
   27.6640   14.4340    6.9760 C   0  0  0  0  0  0  0  0  0  0  0  0
   27.1310   14.8070    8.1770 N   0  0  0  0  0  0  0  0  0  0  0  0
   26.1010   15.6080    8.1420 C   0  0  0  0  0  0  0  0  0  0  0  0
   25.4880   16.0480    9.4300 C   0  0  0  0  0  0  0  0  0  0  0  0
   24.1800   15.6610    9.7980 C   0  0  0  0  0  0  0  0  0  0  0  0
   23.6240   16.0900   11.0070 C   0  0  0  0  0  0  0  0  0  0  0  0
   24.3960   16.9100   11.8080 C   0  0  0  0  0  0  0  0  0  0  0  0
   25.6810   17.3150   11.4570 C   0  0  0  0  0  0  0  0  0  0  0  0
   26.2430   16.8940   10.2650 C   0  0  0  0  0  0  0  0  0  0  0  0
   26.2540   18.1790   12.5290 C   0  0  0  0  0  0  0  0  0  0  0  0
   25.1410   18.3140   13.4600 N   0  0  0  0  0  0  0  0  0  0  0  0
   25.3260   18.9040   14.7810 C   0  0  1  0  0  0  0  0  0  0  0  0
   26.3950   18.2090   15.6230 C   0  0  0  0  0  0  0  0  0  0  0  0
   26.4610   18.8630   16.9940 C   0  0  0  0  0  0  0  0  0  0  0  0
   26.7300   20.3450   16.8820 C   0  0  0  0  0  0  0  0  0  0  0  0
   27.2340   20.9910   17.7980 O   0  0  0  0  0  0  0  0  0  0  0  0
   26.3060   20.9630   15.7320 N   0  0  0  0  0  0  0  0  0  0  0  0
   25.6140   20.4100   14.6800 C   0  0  0  0  0  0  0  0  0  0  0  0
   25.1780   21.1250   13.7770 O   0  0  0  0  0  0  0  0  0  0  0  0
   24.0710   17.5020   13.1110 C   0  0  0  0  0  0  0  0  0  0  0  0
   23.0540   17.2770   13.7340 O   0  0  0  0  0  0  0  0  0  0  0  0
   25.4570   16.1120    6.8810 C   0  0  0  0  0  0  0  0  0  0  0  0
   26.0280   15.7090    5.7370 C   0  0  0  0  0  0  0  0  0  0  0  0
   27.1350   14.8720    5.7590 N   0  0  0  0  0  0  0  0  0  0  0  0
   27.8250   14.3760    4.7030 N   0  0  0  0  0  0  0  0  0  0  0  0
   28.8120    9.9570    6.3020 C   0  0  0  0  0  0  0  0  0  0  0  0
   27.8130    9.8090    7.1460 N   0  0  0  0  0  0  0  0  0  0  0  0
   24.7464    9.1845    8.6779 H   0  0  0  0  0  0  0  0  0  0  0  0
   23.8606    9.4192    7.1330 H   0  0  0  0  0  0  0  0  0  0  0  0
   25.4708    8.6230    7.1330 H   0  0  0  0  0  0  0  0  0  0  0  0
   24.8471   11.4125    6.8606 H   0  0  0  0  0  0  0  0  0  0  0  0
   25.7327   11.1620    8.4272 H   0  0  0  0  0  0  0  0  0  0  0  0
   26.6792   12.0865    4.9912 H   0  0  0  0  0  0  0  0  0  0  0  0
   29.4039   13.0960    7.3533 H   0  0  0  0  0  0  0  0  0  0  0  0
   23.5935   15.0161    9.1270 H   0  0  0  0  0  0  0  0  0  0  0  0
   22.6108   15.7864   11.3091 H   0  0  0  0  0  0  0  0  0  0  0  0
   27.2555   17.2125    9.9764 H   0  0  0  0  0  0  0  0  0  0  0  0
   27.1169   17.6950   13.0098 H   0  0  0  0  0  0  0  0  0  0  0  0
   26.6321   19.1429   12.1576 H   0  0  0  0  0  0  0  0  0  0  0  0
   24.3725   18.7526   15.3082 H   0  0  0  0  0  0  0  0  0  0  0  0
   26.1393   17.1451   15.7357 H   0  0  0  0  0  0  0  0  0  0  0  0
   27.3717   18.2994   15.1250 H   0  0  0  0  0  0  0  0  0  0  0  0
   25.5017   18.7108   17.5103 H   0  0  0  0  0  0  0  0  0  0  0  0
   27.2843   18.4022   17.5595 H   0  0  0  0  0  0  0  0  0  0  0  0
   26.5341   21.9638   15.6465 H   0  0  0  0  0  0  0  0  0  0  0  0
   24.5747   16.7687    6.8958 H   0  0  0  0  0  0  0  0  0  0  0  0
   25.6161   16.0442    4.7737 H   0  0  0  0  0  0  0  0  0  0  0  0
   29.7849    9.4508    6.3873 H   0  0  0  0  0  0  0  0  0  0  0  0
  1  2  1  0
  2  3  1  0
  3  4  2  0
  4  5  1  0
  5  6  1  0
  6  7  2  0
  6  8  2  0
  6  9  1  0
  9 10  1  0
 10 11  1  0
 11 12  2  0
 12 13  1  0
 13 14  2  0
 14 15  1  0
 15 16  2  0
 16 17  1  0
 17 18  2  0
 18 19  1  0
 19 20  2  0
 19 21  1  0
 21 22  1  0
 22 23  1  0
 23 24  1  0
 24 25  1  0
 25 26  1  0
 26 27  2  0
 26 28  1  0
 28 29  1  0
 29 30  2  0
 22 31  1  0
 31 32  2  0
 14 33  1  0
 33 34  2  0
 34 35  1  0
 35 36  1  0
  5 37  1  0
 37 38  2  0
 38  3  1  0
 36 10  2  0
 35 12  1  0
 20 15  1  0
 29 23  1  0
 31 18  1  0
  1 39  1  0
  1 40  1  0
  1 41  1  0
  2 42  1  0
  2 43  1  0
  4 44  1  0
 11 45  1  0
 16 46  1  0
 17 47  1  0
 20 48  1  0
 21 49  1  0
 21 50  1  0
 23 51  1  1
 24 52  1  0
 24 53  1  0
 25 54  1  0
 25 55  1  0
 28 56  1  0
 33 57  1  0
 34 58  1  0
 37 59  1  0
M  END
>  <meeko>  (203) 
{"is_sidechain": [true], "free_energy": -13.78, "intermolecular_energy": 0.0, "internal_energy": -13.78, "cluster_size": 17, "cluster_id": 1, "rank_in_cluster": 1}

>  <_RMSD_MCS_to_ref>  (203) 
0.7043087233435182

$$$$
ligand
     RDKit          3D

 53 57  0  0  0  0  0  0  0  0999 V2000
   24.8710    9.6160    7.7820 C   0  0  0  0  0  0  0  0  0  0  0  0
   25.4240   10.9650    7.3490 C   0  0  0  0  0  0  0  0  0  0  0  0
   26.7700   11.2310    7.9260 C   0  0  0  0  0  0  0  0  0  0  0  0
   27.1000   11.8430    9.1190 C   0  0  0  0  0  0  0  0  0  0  0  0
   28.4650   11.7850    9.1590 N   0  0  0  0  0  0  0  0  0  0  0  0
   29.4550   12.5870   10.2680 S   0  0  0  0  0  6  0  0  0  0  0  0
   28.9480   12.1630   11.5590 O   0  0  0  0  0  0  0  0  0  0  0  0
   30.8010   12.2720    9.8220 O   0  0  0  0  0  0  0  0  0  0  0  0
   29.1500   14.1750   10.0400 O   0  0  0  0  0  0  0  0  0  0  0  0
   28.1340   14.5880    9.2070 C   0  0  0  0  0  0  0  0  0  0  0  0
   28.2750   14.4120    7.8400 C   0  0  0  0  0  0  0  0  0  0  0  0
   27.3610   14.7750    6.9060 N   0  0  0  0  0  0  0  0  0  0  0  0
   26.2070   15.3730    7.3020 C   0  0  0  0  0  0  0  0  0  0  0  0
   25.9790   15.6190    8.6570 C   0  0  0  0  0  0  0  0  0  0  0  0
   24.9430   16.2160    9.4260 C   0  0  0  0  0  0  0  0  0  0  0  0
   25.3460   16.1680   10.7470 C   0  0  0  0  0  0  0  0  0  0  0  0
   24.7670   16.6010   12.0170 C   0  0  0  0  0  0  0  0  0  0  0  0
   23.4860   16.1920   12.3970 C   0  0  0  0  0  0  0  0  0  0  0  0
   22.9430   16.6140   13.6080 C   0  0  0  0  0  0  0  0  0  0  0  0
   23.6740   17.4540   14.4540 C   0  0  0  0  0  0  0  0  0  0  0  0
   24.9600   17.8900   14.1110 C   0  0  0  0  0  0  0  0  0  0  0  0
   25.7240   18.7400   14.9840 N   0  0  0  0  0  0  0  0  0  0  0  0
   26.6100   18.1350   15.9770 C   0  0  0  0  0  0  0  0  0  0  0  0
   26.6380   18.9530   17.2520 C   0  0  0  0  0  0  0  0  0  0  0  0
   26.9820   20.3720   16.9200 C   0  0  0  0  0  0  0  0  0  0  0  0
   27.4710   21.1410   17.7430 O   0  0  0  0  0  0  0  0  0  0  0  0
   26.6310   20.7900   15.6680 N   0  0  0  0  0  0  0  0  0  0  0  0
   25.8290   20.1200   14.7750 C   0  0  0  0  0  0  0  0  0  0  0  0
   25.2910   20.7730   13.8850 O   0  0  0  0  0  0  0  0  0  0  0  0
   25.4840   17.4500   12.8830 C   0  0  0  0  0  0  0  0  0  0  0  0
   26.5680   15.5640   10.8250 O   0  0  0  0  0  0  0  0  0  0  0  0
   26.9520   15.2230    9.5670 C   0  0  0  0  0  0  0  0  0  0  0  0
   28.9210   11.2430    8.0000 C   0  0  0  0  0  0  0  0  0  0  0  0
   27.9140   10.8700    7.2390 N   0  0  0  0  0  0  0  0  0  0  0  0
   24.8497    9.5640    8.8806 H   0  0  0  0  0  0  0  0  0  0  0  0
   23.8507    9.4948    7.3893 H   0  0  0  0  0  0  0  0  0  0  0  0
   25.5127    8.8135    7.3893 H   0  0  0  0  0  0  0  0  0  0  0  0
   25.4991   10.9816    6.2517 H   0  0  0  0  0  0  0  0  0  0  0  0
   24.7392   11.7444    7.7146 H   0  0  0  0  0  0  0  0  0  0  0  0
   26.4199   12.2778    9.8663 H   0  0  0  0  0  0  0  0  0  0  0  0
   29.2025   13.9401    7.4836 H   0  0  0  0  0  0  0  0  0  0  0  0
   25.4530   15.6630    6.5554 H   0  0  0  0  0  0  0  0  0  0  0  0
   24.0011   16.6357    9.0429 H   0  0  0  0  0  0  0  0  0  0  0  0
   22.9035   15.5333   11.7362 H   0  0  0  0  0  0  0  0  0  0  0  0
   21.9348   16.2852   13.9003 H   0  0  0  0  0  0  0  0  0  0  0  0
   23.2305   17.7785   15.4069 H   0  0  0  0  0  0  0  0  0  0  0  0
   26.2515   17.1211   16.2082 H   0  0  0  0  0  0  0  0  0  0  0  0
   27.6280   18.0993   15.5619 H   0  0  0  0  0  0  0  0  0  0  0  0
   25.6497   18.9172   17.7337 H   0  0  0  0  0  0  0  0  0  0  0  0
   27.3924   18.5411   17.9385 H   0  0  0  0  0  0  0  0  0  0  0  0
   27.0052   21.6995   15.3619 H   0  0  0  0  0  0  0  0  0  0  0  0
   26.4906   17.7807   12.5875 H   0  0  0  0  0  0  0  0  0  0  0  0
   29.9827   11.1315    7.7347 H   0  0  0  0  0  0  0  0  0  0  0  0
  1  2  1  0
  2  3  1  0
  3  4  2  0
  4  5  1  0
  5  6  1  0
  6  7  2  0
  6  8  2  0
  6  9  1  0
  9 10  1  0
 10 11  2  0
 11 12  1  0
 12 13  2  0
 13 14  1  0
 14 15  1  0
 15 16  2  0
 16 17  1  0
 17 18  2  0
 18 19  1  0
 19 20  2  0
 20 21  1  0
 21 22  1  0
 22 23  1  0
 23 24  1  0
 24 25  1  0
 25 26  2  0
 25 27  1  0
 27 28  1  0
 28 29  2  0
 21 30  2  0
 16 31  1  0
 31 32  1  0
  5 33  1  0
 33 34  2  0
 34  3  1  0
 32 10  1  0
 32 14  2  0
 30 17  1  0
 28 22  1  0
  1 35  1  0
  1 36  1  0
  1 37  1  0
  2 38  1  0
  2 39  1  0
  4 40  1  0
 11 41  1  0
 13 42  1  0
 15 43  1  0
 18 44  1  0
 19 45  1  0
 20 46  1  0
 23 47  1  0
 23 48  1  0
 24 49  1  0
 24 50  1  0
 27 51  1  0
 30 52  1  0
 33 53  1  0
M  END
>  <meeko>  (204) 
{"is_sidechain": [true], "free_energy": -13.78, "intermolecular_energy": 0.0, "internal_energy": -13.78, "cluster_size": 18, "cluster_id": 1, "rank_in_cluster": 1}

>  <_RMSD_MCS_to_ref>  (204) 
1.0426965042619067

$$$$
ligand
     RDKit          3D

 58 63  0  0  0  0  0  0  0  0999 V2000
   24.8540    9.4020    7.6050 C   0  0  0  0  0  0  0  0  0  0  0  0
   25.5230   10.7550    7.4270 C   0  0  0  0  0  0  0  0  0  0  0  0
   25.1170   11.4210    6.1590 C   0  0  0  0  0  0  0  0  0  0  0  0
   24.4950   12.6420    5.9800 C   0  0  0  0  0  0  0  0  0  0  0  0
   24.3710   12.7550    4.6250 N   0  0  0  0  0  0  0  0  0  0  0  0
   23.6390   14.0370    3.8120 S   0  0  0  0  0  6  0  0  0  0  0  0
   22.2060   13.8380    3.9500 O   0  0  0  0  0  0  0  0  0  0  0  0
   24.2590   14.0000    2.4990 O   0  0  0  0  0  0  0  0  0  0  0  0
   24.0770   15.4280    4.5150 O   0  0  0  0  0  0  0  0  0  0  0  0
   25.0720   15.4110    5.4530 C   0  0  0  0  0  0  0  0  0  0  0  0
   24.6580   15.7050    6.6990 N   0  0  0  0  0  0  0  0  0  0  0  0
   25.5720   15.7860    7.6990 C   0  0  0  0  0  0  0  0  0  0  0  0
   25.0950   16.0990    9.0460 C   0  0  0  0  0  0  0  0  0  0  0  0
   23.9210   15.4990    9.5760 C   0  0  0  0  0  0  0  0  0  0  0  0
   23.4590   15.7990   10.8620 C   0  0  0  0  0  0  0  0  0  0  0  0
   24.1930   16.7000   11.6060 C   0  0  0  0  0  0  0  0  0  0  0  0
   25.3580   17.2920   11.1310 C   0  0  0  0  0  0  0  0  0  0  0  0
   25.8200   16.9970    9.8580 C   0  0  0  0  0  0  0  0  0  0  0  0
   25.9440   18.1750   12.1790 C   0  0  0  0  0  0  0  0  0  0  0  0
   24.9420   18.1240   13.2370 N   0  0  0  0  0  0  0  0  0  0  0  0
   25.2110   18.6790   14.5600 C   0  0  1  0  0  0  0  0  0  0  0  0
   26.2990   17.9310   15.3310 C   0  0  0  0  0  0  0  0  0  0  0  0
   26.4540   18.5500   16.7110 C   0  0  0  0  0  0  0  0  0  0  0  0
   26.7630   20.0270   16.6190 C   0  0  0  0  0  0  0  0  0  0  0  0
   27.3300   20.6340   17.5220 O   0  0  0  0  0  0  0  0  0  0  0  0
   26.3040   20.6840   15.5050 N   0  0  0  0  0  0  0  0  0  0  0  0
   25.5410   20.1770   14.4770 C   0  0  0  0  0  0  0  0  0  0  0  0
   25.0800   20.9270   13.6170 O   0  0  0  0  0  0  0  0  0  0  0  0
   23.9560   17.1870   12.9690 C   0  0  0  0  0  0  0  0  0  0  0  0
   23.0590   16.8000   13.6920 O   0  0  0  0  0  0  0  0  0  0  0  0
   26.8920   15.5410    7.3630 C   0  0  0  0  0  0  0  0  0  0  0  0
   28.0630   15.4720    8.0620 N   0  0  0  0  0  0  0  0  0  0  0  0
   29.1420   15.2170    7.2980 N   0  0  0  0  0  0  0  0  0  0  0  0
   28.6290   15.0860    6.0690 C   0  0  0  0  0  0  0  0  0  0  0  0
   27.2330   15.2650    6.0520 C   0  0  0  0  0  0  0  0  0  0  0  0
   26.3300   15.2080    5.0520 N   0  0  0  0  0  0  0  0  0  0  0  0
   24.8940   11.6510    4.0320 C   0  0  0  0  0  0  0  0  0  0  0  0
   25.3540   10.8160    4.9400 N   0  0  0  0  0  0  0  0  0  0  0  0
   24.7464    9.1845    8.6779 H   0  0  0  0  0  0  0  0  0  0  0  0
   23.8606    9.4192    7.1330 H   0  0  0  0  0  0  0  0  0  0  0  0
   25.4708    8.6230    7.1330 H   0  0  0  0  0  0  0  0  0  0  0  0
   25.2442   11.4019    8.2719 H   0  0  0  0  0  0  0  0  0  0  0  0
   26.6102   10.5917    7.3894 H   0  0  0  0  0  0  0  0  0  0  0  0
   24.1739   13.3577    6.7512 H   0  0  0  0  0  0  0  0  0  0  0  0
   23.3612   14.7803    8.9594 H   0  0  0  0  0  0  0  0  0  0  0  0
   22.5464   15.3349   11.2643 H   0  0  0  0  0  0  0  0  0  0  0  0
   26.7451   17.4595    9.4834 H   0  0  0  0  0  0  0  0  0  0  0  0
   26.9115   17.7864   12.5297 H   0  0  0  0  0  0  0  0  0  0  0  0
   26.1529   19.1950   11.8240 H   0  0  0  0  0  0  0  0  0  0  0  0
   24.2807   18.5465   15.1318 H   0  0  0  0  0  0  0  0  0  0  0  0
   26.0157   16.8730   15.4327 H   0  0  0  0  0  0  0  0  0  0  0  0
   27.2519   18.0029   14.7861 H   0  0  0  0  0  0  0  0  0  0  0  0
   25.5176   18.4141   17.2719 H   0  0  0  0  0  0  0  0  0  0  0  0
   27.2903   18.0516   17.2231 H   0  0  0  0  0  0  0  0  0  0  0  0
   26.5619   21.6783   15.4285 H   0  0  0  0  0  0  0  0  0  0  0  0
   28.1161   15.6033    9.0822 H   0  0  0  0  0  0  0  0  0  0  0  0
   29.2295   14.8639    5.1745 H   0  0  0  0  0  0  0  0  0  0  0  0
   24.9285   11.4787    2.9461 H   0  0  0  0  0  0  0  0  0  0  0  0
  1  2  1  0
  2  3  1  0
  3  4  2  0
  4  5  1  0
  5  6  1  0
  6  7  2  0
  6  8  2  0
  6  9  1  0
  9 10  1  0
 10 11  2  0
 11 12  1  0
 12 13  1  0
 13 14  2  0
 14 15  1  0
 15 16  2  0
 16 17  1  0
 17 18  2  0
 17 19  1  0
 19 20  1  0
 20 21  1  0
 21 22  1  0
 22 23  1  0
 23 24  1  0
 24 25  2  0
 24 26  1  0
 26 27  1  0
 27 28  2  0
 20 29  1  0
 29 30  2  0
 12 31  2  0
 31 32  1  0
 32 33  1  0
 33 34  2  0
 34 35  1  0
 35 36  2  0
  5 37  1  0
 37 38  2  0
 38  3  1  0
 36 10  1  0
 18 13  1  0
 27 21  1  0
 35 31  1  0
 29 16  1  0
  1 39  1  0
  1 40  1  0
  1 41  1  0
  2 42  1  0
  2 43  1  0
  4 44  1  0
 14 45  1  0
 15 46  1  0
 18 47  1  0
 19 48  1  0
 19 49  1  0
 21 50  1  1
 22 51  1  0
 22 52  1  0
 23 53  1  0
 23 54  1  0
 26 55  1  0
 32 56  1  0
 34 57  1  0
 37 58  1  0
M  END
>  <meeko>  (205) 
{"is_sidechain": [true], "free_energy": -13.77, "intermolecular_energy": 0.0, "internal_energy": -13.77, "cluster_size": 12, "cluster_id": 1, "rank_in_cluster": 1}

>  <_RMSD_MCS_to_ref>  (205) 
0.45506275513505823

$$$$
ligand
     RDKit          3D

 63 68  0  0  0  0  0  0  0  0999 V2000
   24.8540    9.4020    7.6050 C   0  0  0  0  0  0  0  0  0  0  0  0
   25.5230   10.7550    7.4270 C   0  0  0  0  0  0  0  0  0  0  0  0
   26.9830   10.6300    7.1620 C   0  0  0  0  0  0  0  0  0  0  0  0
   27.7180   11.1310    6.1060 C   0  0  0  0  0  0  0  0  0  0  0  0
   28.9980   10.7360    6.3730 N   0  0  0  0  0  0  0  0  0  0  0  0
   30.3150   10.8750    5.3380 S   0  0  0  0  0  6  0  0  0  0  0  0
   29.9230   10.1820    4.1260 O   0  0  0  0  0  0  0  0  0  0  0  0
   31.4810   10.4920    6.1110 O   0  0  0  0  0  0  0  0  0  0  0  0
   30.4120   12.6110    4.9990 C   0  0  0  0  0  0  0  0  0  0  0  0
   31.4160   13.1020    4.1630 C   0  0  0  0  0  0  0  0  0  0  0  0
   31.4800   14.4690    3.8990 C   0  0  0  0  0  0  0  0  0  0  0  0
   30.5500   15.3440    4.4680 C   0  0  0  0  0  0  0  0  0  0  0  0
   29.5470   14.8540    5.3170 C   0  0  0  0  0  0  0  0  0  0  0  0
   28.5850   15.7220    5.9080 N   0  0  0  0  0  0  0  0  0  0  0  0
   27.9320   16.7850    5.3320 C   0  0  0  0  0  0  0  0  0  0  0  0
   27.0950   17.3030    6.2910 C   0  0  0  0  0  0  0  0  0  0  0  0
   27.2880   16.4970    7.4410 C   0  0  0  0  0  0  0  0  0  0  0  0
   26.6400   16.6120    8.7530 C   0  0  0  0  0  0  0  0  0  0  0  0
   25.5790   15.7360    9.0970 C   0  0  0  0  0  0  0  0  0  0  0  0
   24.9410   15.8130   10.3390 C   0  0  0  0  0  0  0  0  0  0  0  0
   25.3800   16.7830   11.2150 C   0  0  0  0  0  0  0  0  0  0  0  0
   26.4160   17.6600   10.9090 C   0  0  0  0  0  0  0  0  0  0  0  0
   27.0590   17.5860    9.6810 C   0  0  0  0  0  0  0  0  0  0  0  0
   26.6680   18.5710   12.0620 C   0  0  0  0  0  0  0  0  0  0  0  0
   25.6120   18.2070   12.9970 N   0  0  0  0  0  0  0  0  0  0  0  0
   25.6100   18.7040   14.3680 C   0  0  1  0  0  0  0  0  0  0  0  0
   26.6800   18.0700   15.2570 C   0  0  0  0  0  0  0  0  0  0  0  0
   26.5480   18.6130   16.6700 C   0  0  0  0  0  0  0  0  0  0  0  0
   26.6430   20.1200   16.6900 C   0  0  0  0  0  0  0  0  0  0  0  0
   26.9670   20.7420   17.6980 O   0  0  0  0  0  0  0  0  0  0  0  0
   26.2620   20.7770   15.5470 N   0  0  0  0  0  0  0  0  0  0  0  0
   25.7190   20.2370   14.4040 C   0  0  0  0  0  0  0  0  0  0  0  0
   25.2580   20.9700   13.5300 O   0  0  0  0  0  0  0  0  0  0  0  0
   24.9050   17.0920   12.5690 C   0  0  0  0  0  0  0  0  0  0  0  0
   24.0630   16.4550   13.1680 O   0  0  0  0  0  0  0  0  0  0  0  0
   28.1970   15.5440    7.1930 N   0  0  0  0  0  0  0  0  0  0  0  0
   29.4860   13.4780    5.5890 C   0  0  0  0  0  0  0  0  0  0  0  0
   29.0070    9.9980    7.5120 C   0  0  0  0  0  0  0  0  0  0  0  0
   27.7970    9.9220    8.0240 N   0  0  0  0  0  0  0  0  0  0  0  0
   24.7464    9.1845    8.6779 H   0  0  0  0  0  0  0  0  0  0  0  0
   23.8606    9.4192    7.1330 H   0  0  0  0  0  0  0  0  0  0  0  0
   25.4708    8.6230    7.1330 H   0  0  0  0  0  0  0  0  0  0  0  0
   25.0522   11.2742    6.5792 H   0  0  0  0  0  0  0  0  0  0  0  0
   25.3967   11.3199    8.3624 H   0  0  0  0  0  0  0  0  0  0  0  0
   27.3558   11.7145    5.2467 H   0  0  0  0  0  0  0  0  0  0  0  0
   32.1506   12.4159    3.7162 H   0  0  0  0  0  0  0  0  0  0  0  0
   32.2672   14.8619    3.2388 H   0  0  0  0  0  0  0  0  0  0  0  0
   30.6051   16.4206    4.2491 H   0  0  0  0  0  0  0  0  0  0  0  0
   28.0554   17.1508    4.3020 H   0  0  0  0  0  0  0  0  0  0  0  0
   26.4171   18.1631    6.1878 H   0  0  0  0  0  0  0  0  0  0  0  0
   25.2504   14.9786    8.3701 H   0  0  0  0  0  0  0  0  0  0  0  0
   24.1228   15.1280   10.6060 H   0  0  0  0  0  0  0  0  0  0  0  0
   27.8808   18.2753    9.4368 H   0  0  0  0  0  0  0  0  0  0  0  0
   27.6621   18.3929   12.4980 H   0  0  0  0  0  0  0  0  0  0  0  0
   26.6579   19.6358   11.7863 H   0  0  0  0  0  0  0  0  0  0  0  0
   24.6402   18.4004   14.7890 H   0  0  0  0  0  0  0  0  0  0  0  0
   26.5472   16.9781   15.2694 H   0  0  0  0  0  0  0  0  0  0  0  0
   27.6775   18.3124   14.8616 H   0  0  0  0  0  0  0  0  0  0  0  0
   25.5736   18.3099   17.0807 H   0  0  0  0  0  0  0  0  0  0  0  0
   27.3700   18.2053   17.2767 H   0  0  0  0  0  0  0  0  0  0  0  0
   26.3991   21.7978   15.5445 H   0  0  0  0  0  0  0  0  0  0  0  0
   28.7125   13.0828    6.2639 H   0  0  0  0  0  0  0  0  0  0  0  0
   29.9016    9.5285    7.9469 H   0  0  0  0  0  0  0  0  0  0  0  0
  1  2  1  0
  2  3  1  0
  3  4  2  0
  4  5  1  0
  5  6  1  0
  6  7  2  0
  6  8  2  0
  6  9  1  0
  9 10  2  0
 10 11  1  0
 11 12  2  0
 12 13  1  0
 13 14  1  0
 14 15  1  0
 15 16  2  0
 16 17  1  0
 17 18  1  0
 18 19  2  0
 19 20  1  0
 20 21  2  0
 21 22  1  0
 22 23  2  0
 22 24  1  0
 24 25  1  0
 25 26  1  0
 26 27  1  0
 27 28  1  0
 28 29  1  0
 29 30  2  0
 29 31  1  0
 31 32  1  0
 32 33  2  0
 25 34  1  0
 34 35  2  0
 17 36  2  0
 13 37  2  0
  5 38  1  0
 38 39  2  0
 39  3  1  0
 37  9  1  0
 36 14  1  0
 23 18  1  0
 32 26  1  0
 34 21  1  0
  1 40  1  0
  1 41  1  0
  1 42  1  0
  2 43  1  0
  2 44  1  0
  4 45  1  0
 10 46  1  0
 11 47  1  0
 12 48  1  0
 15 49  1  0
 16 50  1  0
 19 51  1  0
 20 52  1  0
 23 53  1  0
 24 54  1  0
 24 55  1  0
 26 56  1  1
 27 57  1  0
 27 58  1  0
 28 59  1  0
 28 60  1  0
 31 61  1  0
 37 62  1  0
 38 63  1  0
M  END
>  <meeko>  (206) 
{"is_sidechain": [true], "free_energy": -13.77, "intermolecular_energy": 0.0, "internal_energy": -13.77, "cluster_size": 20, "cluster_id": 1, "rank_in_cluster": 1}

>  <_RMSD_MCS_to_ref>  (206) 
0.7222128802814605

$$$$
ligand
     RDKit          3D

 61 66  0  0  0  0  0  0  0  0999 V2000
   24.8710    9.6160    7.7820 C   0  0  0  0  0  0  0  0  0  0  0  0
   25.4240   10.9650    7.3490 C   0  0  0  0  0  0  0  0  0  0  0  0
   26.9120   10.9880    7.3540 C   0  0  0  0  0  0  0  0  0  0  0  0
   27.7670   11.9210    6.7990 C   0  0  0  0  0  0  0  0  0  0  0  0
   29.0140   11.4540    7.1050 N   0  0  0  0  0  0  0  0  0  0  0  0
   30.4630   12.2920    6.8800 S   0  0  0  0  0  6  0  0  0  0  0  0
   30.5100   12.5440    5.4510 O   0  0  0  0  0  0  0  0  0  0  0  0
   31.4760   11.4790    7.5290 O   0  0  0  0  0  0  0  0  0  0  0  0
   30.3590   13.7360    7.6440 O   0  0  0  0  0  0  0  0  0  0  0  0
   29.1580   14.1010    8.2000 C   0  0  0  0  0  0  0  0  0  0  0  0
   28.8770   13.7870    9.5330 C   0  0  0  0  0  0  0  0  0  0  0  0
   27.6430   14.1260   10.0850 C   0  0  0  0  0  0  0  0  0  0  0  0
   26.6600   14.7990    9.3380 C   0  0  0  0  0  0  0  0  0  0  0  0
   25.3640   15.1530    9.9070 C   0  0  0  0  0  0  0  0  0  0  0  0
   24.1680   14.8540    9.2270 C   0  0  0  0  0  0  0  0  0  0  0  0
   22.9100   15.2100    9.7510 C   0  0  0  0  0  0  0  0  0  0  0  0
   22.8150   15.8770   10.9700 C   0  0  0  0  0  0  0  0  0  0  0  0
   23.9950   16.1570   11.6320 C   0  0  0  0  0  0  0  0  0  0  0  0
   25.2480   15.8080   11.1290 C   0  0  0  0  0  0  0  0  0  0  0  0
   26.3130   16.2610   12.0730 C   0  0  0  0  0  0  0  0  0  0  0  0
   25.5500   16.8260   13.1780 N   0  0  0  0  0  0  0  0  0  0  0  0
   26.1990   17.6430   14.1980 C   0  0  2  0  0  0  0  0  0  0  0  0
   25.5200   17.5840   15.5660 C   0  0  0  0  0  0  0  0  0  0  0  0
   26.3150   18.4190   16.5570 C   0  0  0  0  0  0  0  0  0  0  0  0
   26.4630   19.8450   16.0800 C   0  0  0  0  0  0  0  0  0  0  0  0
   26.6690   20.7760   16.8520 O   0  0  0  0  0  0  0  0  0  0  0  0
   26.4370   20.0460   14.7220 N   0  0  0  0  0  0  0  0  0  0  0  0
   26.3370   19.1000   13.7280 C   0  0  0  0  0  0  0  0  0  0  0  0
   26.4560   19.4250   12.5460 O   0  0  0  0  0  0  0  0  0  0  0  0
   24.1900   16.8580   12.9050 C   0  0  0  0  0  0  0  0  0  0  0  0
   23.3010   17.3810   13.5470 O   0  0  0  0  0  0  0  0  0  0  0  0
   26.9850   15.1290    8.0070 C   0  0  0  0  0  0  0  0  0  0  0  0
   26.2420   15.7680    7.0350 N   0  0  0  0  0  0  0  0  0  0  0  0
   26.9720   15.8940    5.8840 C   0  0  0  0  0  0  0  0  0  0  0  0
   28.1970   15.3070    6.0960 C   0  0  0  0  0  0  0  0  0  0  0  0
   28.2160   14.8090    7.4280 C   0  0  0  0  0  0  0  0  0  0  0  0
   28.8960   10.3180    7.8410 C   0  0  0  0  0  0  0  0  0  0  0  0
   27.6290    9.9960    7.9930 N   0  0  0  0  0  0  0  0  0  0  0  0
   24.8497    9.5640    8.8806 H   0  0  0  0  0  0  0  0  0  0  0  0
   23.8507    9.4948    7.3893 H   0  0  0  0  0  0  0  0  0  0  0  0
   25.5127    8.8135    7.3893 H   0  0  0  0  0  0  0  0  0  0  0  0
   25.0693   11.1834    6.3309 H   0  0  0  0  0  0  0  0  0  0  0  0
   25.0712   11.7214    8.0655 H   0  0  0  0  0  0  0  0  0  0  0  0
   27.5040   12.8308    6.2394 H   0  0  0  0  0  0  0  0  0  0  0  0
   29.6306   13.2719   10.1468 H   0  0  0  0  0  0  0  0  0  0  0  0
   27.4327   13.8604   11.1315 H   0  0  0  0  0  0  0  0  0  0  0  0
   24.2173   14.3289    8.2617 H   0  0  0  0  0  0  0  0  0  0  0  0
   21.9956   14.9593    9.1933 H   0  0  0  0  0  0  0  0  0  0  0  0
   21.8405   16.1689   11.3885 H   0  0  0  0  0  0  0  0  0  0  0  0
   26.9295   15.4145   12.4098 H   0  0  0  0  0  0  0  0  0  0  0  0
   27.0180   16.9750   11.6221 H   0  0  0  0  0  0  0  0  0  0  0  0
   27.1990   17.2059   14.3353 H   0  0  0  0  0  0  0  0  0  0  0  0
   24.4977   17.9823   15.4865 H   0  0  0  0  0  0  0  0  0  0  0  0
   25.4784   16.5408   15.9125 H   0  0  0  0  0  0  0  0  0  0  0  0
   25.7939   18.4176   17.5257 H   0  0  0  0  0  0  0  0  0  0  0  0
   27.3188   17.9797   16.6540 H   0  0  0  0  0  0  0  0  0  0  0  0
   26.5001   21.0253   14.4090 H   0  0  0  0  0  0  0  0  0  0  0  0
   25.2756   16.1025    7.1583 H   0  0  0  0  0  0  0  0  0  0  0  0
   26.6380   16.3787    4.9547 H   0  0  0  0  0  0  0  0  0  0  0  0
   29.0164   15.2353    5.3656 H   0  0  0  0  0  0  0  0  0  0  0  0
   29.7415    9.7471    8.2524 H   0  0  0  0  0  0  0  0  0  0  0  0
  1  2  1  0
  2  3  1  0
  3  4  2  0
  4  5  1  0
  5  6  1  0
  6  7  2  0
  6  8  2  0
  6  9  1  0
  9 10  1  0
 10 11  2  0
 11 12  1  0
 12 13  2  0
 13 14  1  0
 14 15  2  0
 15 16  1  0
 16 17  2  0
 17 18  1  0
 18 19  2  0
 19 20  1  0
 20 21  1  0
 21 22  1  0
 22 23  1  0
 23 24  1  0
 24 25  1  0
 25 26  2  0
 25 27  1  0
 27 28  1  0
 28 29  2  0
 21 30  1  0
 30 31  2  0
 13 32  1  0
 32 33  1  0
 33 34  1  0
 34 35  2  0
 35 36  1  0
  5 37  1  0
 37 38  2  0
 38  3  1  0
 36 10  1  0
 19 14  1  0
 28 22  1  0
 36 32  2  0
 30 18  1  0
  1 39  1  0
  1 40  1  0
  1 41  1  0
  2 42  1  0
  2 43  1  0
  4 44  1  0
 11 45  1  0
 12 46  1  0
 15 47  1  0
 16 48  1  0
 17 49  1  0
 20 50  1  0
 20 51  1  0
 22 52  1  1
 23 53  1  0
 23 54  1  0
 24 55  1  0
 24 56  1  0
 27 57  1  0
 33 58  1  0
 34 59  1  0
 35 60  1  0
 37 61  1  0
M  END
>  <meeko>  (207) 
{"is_sidechain": [true], "free_energy": -13.77, "intermolecular_energy": 0.0, "internal_energy": -13.77, "cluster_size": 11, "cluster_id": 1, "rank_in_cluster": 1}

>  <_RMSD_MCS_to_ref>  (207) 
1.1529632354165602

$$$$
ligand
     RDKit          3D

 62 67  0  0  0  0  0  0  0  0999 V2000
   24.8540    9.4020    7.6050 C   0  0  0  0  0  0  0  0  0  0  0  0
   25.5230   10.7550    7.4270 C   0  0  0  0  0  0  0  0  0  0  0  0
   27.0060   10.6590    7.4980 C   0  0  0  0  0  0  0  0  0  0  0  0
   27.9480   11.6560    7.3300 C   0  0  0  0  0  0  0  0  0  0  0  0
   29.1430   11.0070    7.4640 N   0  0  0  0  0  0  0  0  0  0  0  0
   30.6620   11.7320    7.4420 S   0  0  0  0  0  6  0  0  0  0  0  0
   30.9830   11.9510    6.0410 O   0  0  0  0  0  0  0  0  0  0  0  0
   31.4760   10.8380    8.2450 O   0  0  0  0  0  0  0  0  0  0  0  0
   30.5650   13.1600    8.2420 O   0  0  0  0  0  0  0  0  0  0  0  0
   29.3250   13.6580    8.5700 C   0  0  0  0  0  0  0  0  0  0  0  0
   28.7570   13.1860    9.7520 C   0  0  0  0  0  0  0  0  0  0  0  0
   27.5110   13.6560   10.1440 C   0  0  0  0  0  0  0  0  0  0  0  0
   26.8190   14.5890    9.3530 C   0  0  0  0  0  0  0  0  0  0  0  0
   25.5230   15.0810    9.8340 C   0  0  0  0  0  0  0  0  0  0  0  0
   24.3140   14.6330    9.2670 C   0  0  0  0  0  0  0  0  0  0  0  0
   23.0670   15.0950    9.7290 C   0  0  0  0  0  0  0  0  0  0  0  0
   22.9940   16.0170   10.7720 C   0  0  0  0  0  0  0  0  0  0  0  0
   24.1870   16.4490   11.3180 C   0  0  0  0  0  0  0  0  0  0  0  0
   25.4310   16.0010   10.8740 C   0  0  0  0  0  0  0  0  0  0  0  0
   26.5150   16.6370   11.6820 C   0  0  0  0  0  0  0  0  0  0  0  0
   25.7770   17.5460   12.5500 N   0  0  0  0  0  0  0  0  0  0  0  0
   26.3690   18.2030   13.7100 C   0  0  2  0  0  0  0  0  0  0  0  0
   25.9430   17.5590   15.0260 C   0  0  0  0  0  0  0  0  0  0  0  0
   26.6710   18.2350   16.1780 C   0  0  0  0  0  0  0  0  0  0  0  0
   26.4360   19.7280   16.1750 C   0  0  0  0  0  0  0  0  0  0  0  0
   26.3610   20.3820   17.2110 O   0  0  0  0  0  0  0  0  0  0  0  0
   26.3330   20.3310   14.9480 N   0  0  0  0  0  0  0  0  0  0  0  0
   26.0380   19.7040   13.7580 C   0  0  0  0  0  0  0  0  0  0  0  0
   25.5410   20.3370   12.8290 O   0  0  0  0  0  0  0  0  0  0  0  0
   24.4050   17.3970   12.4160 C   0  0  0  0  0  0  0  0  0  0  0  0
   23.5260   17.9310   13.0630 O   0  0  0  0  0  0  0  0  0  0  0  0
   27.3970   15.0370    8.1280 C   0  0  0  0  0  0  0  0  0  0  0  0
   26.7710   15.9560    7.2560 C   0  0  0  0  0  0  0  0  0  0  0  0
   27.3840   16.3500    6.0720 C   0  0  0  0  0  0  0  0  0  0  0  0
   28.6180   15.8150    5.7800 C   0  0  0  0  0  0  0  0  0  0  0  0
   29.2570   14.9360    6.5820 N   0  0  0  0  0  0  0  0  0  0  0  0
   28.6660   14.5570    7.7320 C   0  0  0  0  0  0  0  0  0  0  0  0
   28.9140    9.7040    7.7680 C   0  0  0  0  0  0  0  0  0  0  0  0
   27.6200    9.4510    7.7700 N   0  0  0  0  0  0  0  0  0  0  0  0
   24.7464    9.1845    8.6779 H   0  0  0  0  0  0  0  0  0  0  0  0
   23.8606    9.4192    7.1330 H   0  0  0  0  0  0  0  0  0  0  0  0
   25.4708    8.6230    7.1330 H   0  0  0  0  0  0  0  0  0  0  0  0
   25.2405   11.1642    6.4458 H   0  0  0  0  0  0  0  0  0  0  0  0
   25.1862   11.4099    8.2441 H   0  0  0  0  0  0  0  0  0  0  0  0
   27.7758   12.7246    7.1338 H   0  0  0  0  0  0  0  0  0  0  0  0
   29.2910   12.4479   10.3685 H   0  0  0  0  0  0  0  0  0  0  0  0
   27.0618   13.2953   11.0811 H   0  0  0  0  0  0  0  0  0  0  0  0
   24.3449   13.9046    8.4433 H   0  0  0  0  0  0  0  0  0  0  0  0
   22.1419   14.7251    9.2628 H   0  0  0  0  0  0  0  0  0  0  0  0
   22.0267   16.3851   11.1447 H   0  0  0  0  0  0  0  0  0  0  0  0
   27.0643   15.8864   12.2692 H   0  0  0  0  0  0  0  0  0  0  0  0
   27.2772   17.1410   11.0696 H   0  0  0  0  0  0  0  0  0  0  0  0
   27.4554   18.0780   13.5912 H   0  0  0  0  0  0  0  0  0  0  0  0
   24.8574   17.6773   15.1580 H   0  0  0  0  0  0  0  0  0  0  0  0
   26.1949   16.4884   15.0097 H   0  0  0  0  0  0  0  0  0  0  0  0
   26.3058   17.8166   17.1275 H   0  0  0  0  0  0  0  0  0  0  0  0
   27.7496   18.0529   16.0620 H   0  0  0  0  0  0  0  0  0  0  0  0
   26.4911   21.3482   14.9130 H   0  0  0  0  0  0  0  0  0  0  0  0
   25.7843   16.3656    7.5178 H   0  0  0  0  0  0  0  0  0  0  0  0
   26.8990   17.0653    5.3914 H   0  0  0  0  0  0  0  0  0  0  0  0
   29.1097   16.1193    4.8442 H   0  0  0  0  0  0  0  0  0  0  0  0
   29.6981    8.9630    7.9826 H   0  0  0  0  0  0  0  0  0  0  0  0
  1  2  1  0
  2  3  1  0
  3  4  2  0
  4  5  1  0
  5  6  1  0
  6  7  2  0
  6  8  2  0
  6  9  1  0
  9 10  1  0
 10 11  2  0
 11 12  1  0
 12 13  2  0
 13 14  1  0
 14 15  2  0
 15 16  1  0
 16 17  2  0
 17 18  1  0
 18 19  2  0
 19 20  1  0
 20 21  1  0
 21 22  1  0
 22 23  1  0
 23 24  1  0
 24 25  1  0
 25 26  2  0
 25 27  1  0
 27 28  1  0
 28 29  2  0
 21 30  1  0
 30 31  2  0
 13 32  1  0
 32 33  2  0
 33 34  1  0
 34 35  2  0
 35 36  1  0
 36 37  2  0
  5 38  1  0
 38 39  2  0
 39  3  1  0
 37 10  1  0
 19 14  1  0
 28 22  1  0
 37 32  1  0
 30 18  1  0
  1 40  1  0
  1 41  1  0
  1 42  1  0
  2 43  1  0
  2 44  1  0
  4 45  1  0
 11 46  1  0
 12 47  1  0
 15 48  1  0
 16 49  1  0
 17 50  1  0
 20 51  1  0
 20 52  1  0
 22 53  1  6
 23 54  1  0
 23 55  1  0
 24 56  1  0
 24 57  1  0
 27 58  1  0
 33 59  1  0
 34 60  1  0
 35 61  1  0
 38 62  1  0
M  END
>  <meeko>  (208) 
{"is_sidechain": [true], "free_energy": -13.76, "intermolecular_energy": 0.0, "internal_energy": -13.76, "cluster_size": 12, "cluster_id": 1, "rank_in_cluster": 1}

>  <_RMSD_MCS_to_ref>  (208) 
1.0893735202705563

$$$$
ligand
     RDKit          3D

 56 60  0  0  0  0  0  0  0  0999 V2000
   24.8540    9.4020    7.6050 C   0  0  0  0  0  0  0  0  0  0  0  0
   25.5230   10.7550    7.4270 C   0  0  0  0  0  0  0  0  0  0  0  0
   25.1300   11.4150    6.1530 C   0  0  0  0  0  0  0  0  0  0  0  0
   24.3630   12.5490    5.9630 C   0  0  0  0  0  0  0  0  0  0  0  0
   24.2880   12.6760    4.6060 N   0  0  0  0  0  0  0  0  0  0  0  0
   23.5980   13.9670    3.7700 S   0  0  0  0  0  6  0  0  0  0  0  0
   22.1600   13.7980    3.8930 O   0  0  0  0  0  0  0  0  0  0  0  0
   24.2320   13.8970    2.4630 O   0  0  0  0  0  0  0  0  0  0  0  0
   24.0490   15.3720    4.4530 O   0  0  0  0  0  0  0  0  0  0  0  0
   25.0010   15.3780    5.4400 C   0  0  0  0  0  0  0  0  0  0  0  0
   26.2810   14.9900    5.0850 C   0  0  0  0  0  0  0  0  0  0  0  0
   27.2470   14.9390    6.0810 C   0  0  0  0  0  0  0  0  0  0  0  0
   26.8950   15.2590    7.3900 C   0  0  0  0  0  0  0  0  0  0  0  0
   25.5790   15.6260    7.6700 C   0  0  0  0  0  0  0  0  0  0  0  0
   25.1080   15.9550    9.0280 C   0  0  0  0  0  0  0  0  0  0  0  0
   23.8480   15.4830    9.4840 C   0  0  0  0  0  0  0  0  0  0  0  0
   23.3650   15.7480   10.7740 C   0  0  0  0  0  0  0  0  0  0  0  0
   24.1570   16.4970   11.6190 C   0  0  0  0  0  0  0  0  0  0  0  0
   25.3920   16.9650   11.1820 C   0  0  0  0  0  0  0  0  0  0  0  0
   25.8880   16.7180    9.9140 C   0  0  0  0  0  0  0  0  0  0  0  0
   26.0070   17.7190   12.2780 C   0  0  0  0  0  0  0  0  0  0  0  0
   27.0570   18.3260   12.1920 O   0  0  0  0  0  0  0  0  0  0  0  0
   25.1580   17.6070   13.3700 N   0  0  0  0  0  0  0  0  0  0  0  0
   25.2840   18.3870   14.5950 C   0  0  1  0  0  0  0  0  0  0  0  0
   26.3280   17.8420   15.5670 C   0  0  0  0  0  0  0  0  0  0  0  0
   26.3350   18.6910   16.8280 C   0  0  0  0  0  0  0  0  0  0  0  0
   26.5900   20.1440   16.5100 C   0  0  0  0  0  0  0  0  0  0  0  0
   27.0530   20.9240   17.3370 O   0  0  0  0  0  0  0  0  0  0  0  0
   26.2020   20.5810   15.2680 N   0  0  0  0  0  0  0  0  0  0  0  0
   25.5560   19.8680   14.2830 C   0  0  0  0  0  0  0  0  0  0  0  0
   25.1460   20.4380   13.2740 O   0  0  0  0  0  0  0  0  0  0  0  0
   23.9100   16.9420   13.0200 C   0  0  0  0  0  0  0  0  0  0  0  0
   24.6350   15.6880    6.6960 N   0  0  0  0  0  0  0  0  0  0  0  0
   25.0570   11.7180    4.0260 C   0  0  0  0  0  0  0  0  0  0  0  0
   25.5600   10.9120    4.9400 N   0  0  0  0  0  0  0  0  0  0  0  0
   24.7464    9.1845    8.6779 H   0  0  0  0  0  0  0  0  0  0  0  0
   23.8606    9.4192    7.1330 H   0  0  0  0  0  0  0  0  0  0  0  0
   25.4708    8.6230    7.1330 H   0  0  0  0  0  0  0  0  0  0  0  0
   25.2349   11.4054    8.2661 H   0  0  0  0  0  0  0  0  0  0  0  0
   26.6106   10.5922    7.4005 H   0  0  0  0  0  0  0  0  0  0  0  0
   23.9159   13.1995    6.7291 H   0  0  0  0  0  0  0  0  0  0  0  0
   26.5259   14.7297    4.0447 H   0  0  0  0  0  0  0  0  0  0  0  0
   28.2800   14.6488    5.8387 H   0  0  0  0  0  0  0  0  0  0  0  0
   27.6458   15.2227    8.1931 H   0  0  0  0  0  0  0  0  0  0  0  0
   23.2272   14.8867    8.7991 H   0  0  0  0  0  0  0  0  0  0  0  0
   22.3852   15.3702   11.1015 H   0  0  0  0  0  0  0  0  0  0  0  0
   26.8691   17.1094    9.6068 H   0  0  0  0  0  0  0  0  0  0  0  0
   24.3134   18.2979   15.1049 H   0  0  0  0  0  0  0  0  0  0  0  0
   26.0807   16.8019   15.8261 H   0  0  0  0  0  0  0  0  0  0  0  0
   27.3215   17.8751   15.0960 H   0  0  0  0  0  0  0  0  0  0  0  0
   25.3589   18.5994   17.3269 H   0  0  0  0  0  0  0  0  0  0  0  0
   27.1425   18.3324   17.4833 H   0  0  0  0  0  0  0  0  0  0  0  0
   26.4209   21.5626   15.0456 H   0  0  0  0  0  0  0  0  0  0  0  0
   23.7191   16.0837   13.6809 H   0  0  0  0  0  0  0  0  0  0  0  0
   23.0268   17.5896   13.1228 H   0  0  0  0  0  0  0  0  0  0  0  0
   25.2352   11.6274    2.9443 H   0  0  0  0  0  0  0  0  0  0  0  0
  1  2  1  0
  2  3  1  0
  3  4  2  0
  4  5  1  0
  5  6  1  0
  6  7  2  0
  6  8  2  0
  6  9  1  0
  9 10  1  0
 10 11  2  0
 11 12  1  0
 12 13  2  0
 13 14  1  0
 14 15  1  0
 15 16  2  0
 16 17  1  0
 17 18  2  0
 18 19  1  0
 19 20  2  0
 19 21  1  0
 21 22  2  0
 21 23  1  0
 23 24  1  0
 24 25  1  0
 25 26  1  0
 26 27  1  0
 27 28  2  0
 27 29  1  0
 29 30  1  0
 30 31  2  0
 23 32  1  0
 14 33  2  0
  5 34  1  0
 34 35  2  0
 35  3  1  0
 33 10  1  0
 20 15  1  0
 30 24  1  0
 32 18  1  0
  1 36  1  0
  1 37  1  0
  1 38  1  0
  2 39  1  0
  2 40  1  0
  4 41  1  0
 11 42  1  0
 12 43  1  0
 13 44  1  0
 16 45  1  0
 17 46  1  0
 20 47  1  0
 24 48  1  1
 25 49  1  0
 25 50  1  0
 26 51  1  0
 26 52  1  0
 29 53  1  0
 32 54  1  0
 32 55  1  0
 34 56  1  0
M  END
>  <meeko>  (209) 
{"is_sidechain": [true], "free_energy": -13.75, "intermolecular_energy": 0.0, "internal_energy": -13.75, "cluster_size": 17, "cluster_id": 1, "rank_in_cluster": 1}

>  <_RMSD_MCS_to_ref>  (209) 
0.47761967668381783

$$$$
ligand
     RDKit          3D

 61 66  0  0  0  0  0  0  0  0999 V2000
   24.8540    9.4020    7.6050 C   0  0  0  0  0  0  0  0  0  0  0  0
   25.5230   10.7550    7.4270 C   0  0  0  0  0  0  0  0  0  0  0  0
   24.7810   11.6300    6.4780 C   0  0  0  0  0  0  0  0  0  0  0  0
   25.2270   12.2240    5.3140 C   0  0  0  0  0  0  0  0  0  0  0  0
   24.1350   12.8920    4.8350 N   0  0  0  0  0  0  0  0  0  0  0  0
   24.1640   14.0590    3.6100 S   0  0  0  0  0  6  0  0  0  0  0  0
   25.0600   13.5040    2.6130 O   0  0  0  0  0  0  0  0  0  0  0  0
   22.7690   14.3210    3.3060 O   0  0  0  0  0  0  0  0  0  0  0  0
   24.8590   15.4120    4.2240 O   0  0  0  0  0  0  0  0  0  0  0  0
   25.6900   15.2870    5.3050 C   0  0  0  0  0  0  0  0  0  0  0  0
   25.1830   15.5340    6.5740 C   0  0  0  0  0  0  0  0  0  0  0  0
   26.0290   15.4770    7.6890 C   0  0  0  0  0  0  0  0  0  0  0  0
   25.4820   15.8510    9.0000 C   0  0  0  0  0  0  0  0  0  0  0  0
   24.2300   15.3480    9.4340 C   0  0  0  0  0  0  0  0  0  0  0  0
   23.6910   15.7180   10.6690 C   0  0  0  0  0  0  0  0  0  0  0  0
   24.4210   16.5970   11.4440 C   0  0  0  0  0  0  0  0  0  0  0  0
   25.6530   17.1060   11.0450 C   0  0  0  0  0  0  0  0  0  0  0  0
   26.1980   16.7420    9.8260 C   0  0  0  0  0  0  0  0  0  0  0  0
   26.1960   18.0260   12.0890 C   0  0  0  0  0  0  0  0  0  0  0  0
   25.1330   18.0220   13.0880 N   0  0  0  0  0  0  0  0  0  0  0  0
   25.2500   18.6460   14.4030 C   0  0  1  0  0  0  0  0  0  0  0  0
   26.3030   17.9340   15.2530 C   0  0  0  0  0  0  0  0  0  0  0  0
   26.3170   18.5240   16.6530 C   0  0  0  0  0  0  0  0  0  0  0  0
   26.5510   20.0150   16.6170 C   0  0  0  0  0  0  0  0  0  0  0  0
   27.1410   20.6110   17.5140 O   0  0  0  0  0  0  0  0  0  0  0  0
   26.0380   20.6910   15.5400 N   0  0  0  0  0  0  0  0  0  0  0  0
   25.5460   20.1540   14.3710 C   0  0  0  0  0  0  0  0  0  0  0  0
   25.3400   20.8800   13.4010 O   0  0  0  0  0  0  0  0  0  0  0  0
   24.1040   17.1550   12.7630 C   0  0  0  0  0  0  0  0  0  0  0  0
   23.1280   16.8670   13.4290 O   0  0  0  0  0  0  0  0  0  0  0  0
   27.3900   15.1010    7.4980 C   0  0  0  0  0  0  0  0  0  0  0  0
   28.3490   15.0080    8.5070 C   0  0  0  0  0  0  0  0  0  0  0  0
   29.6340   14.6490    8.3120 N   0  0  0  0  0  0  0  0  0  0  0  0
   29.9650   14.3770    7.0460 C   0  0  0  0  0  0  0  0  0  0  0  0
   29.1450   14.4370    5.9870 N   0  0  0  0  0  0  0  0  0  0  0  0
   27.8770   14.8000    6.2160 C   0  0  0  0  0  0  0  0  0  0  0  0
   27.0150   14.8990    5.1340 C   0  0  0  0  0  0  0  0  0  0  0  0
   23.1030   12.7370    5.7070 C   0  0  0  0  0  0  0  0  0  0  0  0
   23.4630   11.9730    6.7180 N   0  0  0  0  0  0  0  0  0  0  0  0
   24.7464    9.1845    8.6779 H   0  0  0  0  0  0  0  0  0  0  0  0
   23.8606    9.4192    7.1330 H   0  0  0  0  0  0  0  0  0  0  0  0
   25.4708    8.6230    7.1330 H   0  0  0  0  0  0  0  0  0  0  0  0
   25.5738   11.2562    8.4049 H   0  0  0  0  0  0  0  0  0  0  0  0
   26.5271   10.5827    7.0121 H   0  0  0  0  0  0  0  0  0  0  0  0
   26.2331   12.1715    4.8723 H   0  0  0  0  0  0  0  0  0  0  0  0
   24.1174   15.7743    6.7036 H   0  0  0  0  0  0  0  0  0  0  0  0
   23.6729   14.6542    8.7873 H   0  0  0  0  0  0  0  0  0  0  0  0
   22.7224   15.3241   11.0106 H   0  0  0  0  0  0  0  0  0  0  0  0
   27.1724   17.1406    9.5071 H   0  0  0  0  0  0  0  0  0  0  0  0
   27.1380   17.6421   12.5077 H   0  0  0  0  0  0  0  0  0  0  0  0
   26.4405   19.0289   11.7091 H   0  0  0  0  0  0  0  0  0  0  0  0
   24.2542   18.5365   14.8573 H   0  0  0  0  0  0  0  0  0  0  0  0
   26.0625   16.8621   15.3105 H   0  0  0  0  0  0  0  0  0  0  0  0
   27.2930   18.0668   14.7923 H   0  0  0  0  0  0  0  0  0  0  0  0
   25.3488   18.3247   17.1356 H   0  0  0  0  0  0  0  0  0  0  0  0
   27.1369   18.0572   17.2186 H   0  0  0  0  0  0  0  0  0  0  0  0
   26.0183   21.7182   15.6136 H   0  0  0  0  0  0  0  0  0  0  0  0
   28.0346   15.2443    9.5343 H   0  0  0  0  0  0  0  0  0  0  0  0
   31.0058   14.0763    6.8554 H   0  0  0  0  0  0  0  0  0  0  0  0
   27.3849   14.6670    4.1244 H   0  0  0  0  0  0  0  0  0  0  0  0
   22.1066   13.1868    5.5851 H   0  0  0  0  0  0  0  0  0  0  0  0
  1  2  1  0
  2  3  1  0
  3  4  2  0
  4  5  1  0
  5  6  1  0
  6  7  2  0
  6  8  2  0
  6  9  1  0
  9 10  1  0
 10 11  2  0
 11 12  1  0
 12 13  1  0
 13 14  2  0
 14 15  1  0
 15 16  2  0
 16 17  1  0
 17 18  2  0
 17 19  1  0
 19 20  1  0
 20 21  1  0
 21 22  1  0
 22 23  1  0
 23 24  1  0
 24 25  2  0
 24 26  1  0
 26 27  1  0
 27 28  2  0
 20 29  1  0
 29 30  2  0
 12 31  2  0
 31 32  1  0
 32 33  2  0
 33 34  1  0
 34 35  2  0
 35 36  1  0
 36 37  2  0
  5 38  1  0
 38 39  2  0
 39  3  1  0
 37 10  1  0
 18 13  1  0
 27 21  1  0
 36 31  1  0
 29 16  1  0
  1 40  1  0
  1 41  1  0
  1 42  1  0
  2 43  1  0
  2 44  1  0
  4 45  1  0
 11 46  1  0
 14 47  1  0
 15 48  1  0
 18 49  1  0
 19 50  1  0
 19 51  1  0
 21 52  1  1
 22 53  1  0
 22 54  1  0
 23 55  1  0
 23 56  1  0
 26 57  1  0
 32 58  1  0
 34 59  1  0
 37 60  1  0
 38 61  1  0
M  END
>  <meeko>  (210) 
{"is_sidechain": [true], "free_energy": -13.75, "intermolecular_energy": 0.0, "internal_energy": -13.75, "cluster_size": 11, "cluster_id": 1, "rank_in_cluster": 1}

>  <_RMSD_MCS_to_ref>  (210) 
0.5377108888612908

$$$$
ligand
     RDKit          3D

 62 67  0  0  0  0  0  0  0  0999 V2000
   24.8540    9.4020    7.6050 C   0  0  0  0  0  0  0  0  0  0  0  0
   25.5230   10.7550    7.4270 C   0  0  0  0  0  0  0  0  0  0  0  0
   25.3670   11.2810    6.0440 C   0  0  0  0  0  0  0  0  0  0  0  0
   26.0360   12.3230    5.4300 C   0  0  0  0  0  0  0  0  0  0  0  0
   25.4980   12.3680    4.1750 N   0  0  0  0  0  0  0  0  0  0  0  0
   25.9480   13.4420    2.9570 S   0  0  0  0  0  6  0  0  0  0  0  0
   27.1510   12.8970    2.3530 O   0  0  0  0  0  0  0  0  0  0  0  0
   24.7360   13.5830    2.1660 O   0  0  0  0  0  0  0  0  0  0  0  0
   26.2620   14.8980    3.6080 O   0  0  0  0  0  0  0  0  0  0  0  0
   25.9720   15.1340    4.9300 C   0  0  0  0  0  0  0  0  0  0  0  0
   24.7130   15.5040    5.2280 N   0  0  0  0  0  0  0  0  0  0  0  0
   24.4520   15.7730    6.5240 C   0  0  0  0  0  0  0  0  0  0  0  0
   25.3890   15.7110    7.5550 C   0  0  0  0  0  0  0  0  0  0  0  0
   24.9670   16.0320    8.9250 C   0  0  0  0  0  0  0  0  0  0  0  0
   23.8100   15.4280    9.4740 C   0  0  0  0  0  0  0  0  0  0  0  0
   23.3910   15.7140   10.7760 C   0  0  0  0  0  0  0  0  0  0  0  0
   24.1480   16.6120   11.5020 C   0  0  0  0  0  0  0  0  0  0  0  0
   25.2880   17.2230   10.9890 C   0  0  0  0  0  0  0  0  0  0  0  0
   25.7120   16.9430    9.7010 C   0  0  0  0  0  0  0  0  0  0  0  0
   25.8950   18.1130   12.0210 C   0  0  0  0  0  0  0  0  0  0  0  0
   24.9370   18.0360   13.1160 N   0  0  0  0  0  0  0  0  0  0  0  0
   25.2450   18.5840   14.4320 C   0  0  1  0  0  0  0  0  0  0  0  0
   26.4020   17.8780   15.1400 C   0  0  0  0  0  0  0  0  0  0  0  0
   26.5940   18.4870   16.5200 C   0  0  0  0  0  0  0  0  0  0  0  0
   26.8310   19.9770   16.4340 C   0  0  0  0  0  0  0  0  0  0  0  0
   27.4070   20.6000   17.3210 O   0  0  0  0  0  0  0  0  0  0  0  0
   26.2950   20.6250   15.3500 N   0  0  0  0  0  0  0  0  0  0  0  0
   25.5020   20.0970   14.3570 C   0  0  0  0  0  0  0  0  0  0  0  0
   24.9600   20.8370   13.5360 O   0  0  0  0  0  0  0  0  0  0  0  0
   23.9550   17.0860   12.8770 C   0  0  0  0  0  0  0  0  0  0  0  0
   23.0950   16.6790   13.6330 O   0  0  0  0  0  0  0  0  0  0  0  0
   26.7160   15.3390    7.2150 C   0  0  0  0  0  0  0  0  0  0  0  0
   27.7620   15.2500    8.1630 C   0  0  0  0  0  0  0  0  0  0  0  0
   29.0580   14.8850    7.7940 C   0  0  0  0  0  0  0  0  0  0  0  0
   29.3470   14.5980    6.4680 C   0  0  0  0  0  0  0  0  0  0  0  0
   28.3380   14.6760    5.5100 C   0  0  0  0  0  0  0  0  0  0  0  0
   27.0190   15.0450    5.8630 C   0  0  0  0  0  0  0  0  0  0  0  0
   24.5600   11.3950    4.0520 C   0  0  0  0  0  0  0  0  0  0  0  0
   24.4520   10.7150    5.1760 N   0  0  0  0  0  0  0  0  0  0  0  0
   24.7464    9.1845    8.6779 H   0  0  0  0  0  0  0  0  0  0  0  0
   23.8606    9.4192    7.1330 H   0  0  0  0  0  0  0  0  0  0  0  0
   25.4708    8.6230    7.1330 H   0  0  0  0  0  0  0  0  0  0  0  0
   25.0708   11.4692    8.1308 H   0  0  0  0  0  0  0  0  0  0  0  0
   26.5983   10.6284    7.6211 H   0  0  0  0  0  0  0  0  0  0  0  0
   26.8204   12.9672    5.8539 H   0  0  0  0  0  0  0  0  0  0  0  0
   23.4239   16.0627    6.7869 H   0  0  0  0  0  0  0  0  0  0  0  0
   23.2299   14.7201    8.8639 H   0  0  0  0  0  0  0  0  0  0  0  0
   22.4944   15.2428   11.2052 H   0  0  0  0  0  0  0  0  0  0  0  0
   26.6132   17.4224    9.2910 H   0  0  0  0  0  0  0  0  0  0  0  0
   26.8831   17.7429   12.3320 H   0  0  0  0  0  0  0  0  0  0  0  0
   26.0679   19.1391   11.6645 H   0  0  0  0  0  0  0  0  0  0  0  0
   24.3504   18.3991   15.0448 H   0  0  0  0  0  0  0  0  0  0  0  0
   26.1728   16.8068   15.2398 H   0  0  0  0  0  0  0  0  0  0  0  0
   27.3235   18.0006   14.5519 H   0  0  0  0  0  0  0  0  0  0  0  0
   25.6923   18.3017   17.1221 H   0  0  0  0  0  0  0  0  0  0  0  0
   27.4751   18.0214   16.9857 H   0  0  0  0  0  0  0  0  0  0  0  0
   26.5126   21.6286   15.2697 H   0  0  0  0  0  0  0  0  0  0  0  0
   27.5487   15.4742    9.2186 H   0  0  0  0  0  0  0  0  0  0  0  0
   29.8501   14.8250    8.5549 H   0  0  0  0  0  0  0  0  0  0  0  0
   30.3673   14.3104    6.1742 H   0  0  0  0  0  0  0  0  0  0  0  0
   28.5716   14.4464    4.4599 H   0  0  0  0  0  0  0  0  0  0  0  0
   23.9726   11.2011    3.1424 H   0  0  0  0  0  0  0  0  0  0  0  0
  1  2  1  0
  2  3  1  0
  3  4  2  0
  4  5  1  0
  5  6  1  0
  6  7  2  0
  6  8  2  0
  6  9  1  0
  9 10  1  0
 10 11  2  0
 11 12  1  0
 12 13  2  0
 13 14  1  0
 14 15  2  0
 15 16  1  0
 16 17  2  0
 17 18  1  0
 18 19  2  0
 18 20  1  0
 20 21  1  0
 21 22  1  0
 22 23  1  0
 23 24  1  0
 24 25  1  0
 25 26  2  0
 25 27  1  0
 27 28  1  0
 28 29  2  0
 21 30  1  0
 30 31  2  0
 13 32  1  0
 32 33  2  0
 33 34  1  0
 34 35  2  0
 35 36  1  0
 36 37  2  0
  5 38  1  0
 38 39  2  0
 39  3  1  0
 37 10  1  0
 19 14  1  0
 28 22  1  0
 37 32  1  0
 30 17  1  0
  1 40  1  0
  1 41  1  0
  1 42  1  0
  2 43  1  0
  2 44  1  0
  4 45  1  0
 12 46  1  0
 15 47  1  0
 16 48  1  0
 19 49  1  0
 20 50  1  0
 20 51  1  0
 22 52  1  1
 23 53  1  0
 23 54  1  0
 24 55  1  0
 24 56  1  0
 27 57  1  0
 33 58  1  0
 34 59  1  0
 35 60  1  0
 36 61  1  0
 38 62  1  0
M  END
>  <meeko>  (211) 
{"is_sidechain": [true], "free_energy": -13.72, "intermolecular_energy": 0.0, "internal_energy": -13.72, "cluster_size": 17, "cluster_id": 1, "rank_in_cluster": 1}

>  <_RMSD_MCS_to_ref>  (211) 
0.4432422212139392

$$$$
ligand
     RDKit          3D

 62 67  0  0  0  0  0  0  0  0999 V2000
   24.8540    9.4020    7.6050 C   0  0  0  0  0  0  0  0  0  0  0  0
   25.5230   10.7550    7.4270 C   0  0  0  0  0  0  0  0  0  0  0  0
   26.9250   10.6300    6.9420 C   0  0  0  0  0  0  0  0  0  0  0  0
   27.4430   10.9240    5.6970 C   0  0  0  0  0  0  0  0  0  0  0  0
   28.7660   10.5990    5.7990 N   0  0  0  0  0  0  0  0  0  0  0  0
   29.9550   10.9370    4.6610 S   0  0  0  0  0  6  0  0  0  0  0  0
   29.4680   10.4010    3.4060 O   0  0  0  0  0  0  0  0  0  0  0  0
   31.2040   10.5080    5.2590 O   0  0  0  0  0  0  0  0  0  0  0  0
   29.9440   12.7060    4.5640 C   0  0  0  0  0  0  0  0  0  0  0  0
   30.7660   13.3540    3.6380 C   0  0  0  0  0  0  0  0  0  0  0  0
   30.7490   14.7450    3.5680 C   0  0  0  0  0  0  0  0  0  0  0  0
   29.9100   15.4770    4.4140 C   0  0  0  0  0  0  0  0  0  0  0  0
   29.0700   14.8350    5.3390 C   0  0  0  0  0  0  0  0  0  0  0  0
   28.2020   15.6350    6.2000 C   0  0  0  0  0  0  0  0  0  0  0  0
   27.8100   15.3990    7.4370 N   0  0  0  0  0  0  0  0  0  0  0  0
   27.0070   16.4760    7.7510 C   0  0  0  0  0  0  0  0  0  0  0  0
   26.3480   16.6370    9.0380 C   0  0  0  0  0  0  0  0  0  0  0  0
   25.2080   15.8760    9.3930 C   0  0  0  0  0  0  0  0  0  0  0  0
   24.5840   16.0400   10.6350 C   0  0  0  0  0  0  0  0  0  0  0  0
   25.1210   16.9730   11.4990 C   0  0  0  0  0  0  0  0  0  0  0  0
   26.2410   17.7340   11.1800 C   0  0  0  0  0  0  0  0  0  0  0  0
   26.8660   17.5750    9.9530 C   0  0  0  0  0  0  0  0  0  0  0  0
   26.5930   18.6260   12.3210 C   0  0  0  0  0  0  0  0  0  0  0  0
   25.5060   18.3850   13.2610 N   0  0  0  0  0  0  0  0  0  0  0  0
   25.5580   18.8990   14.6270 C   0  0  1  0  0  0  0  0  0  0  0  0
   26.6610   18.2710   15.4780 C   0  0  0  0  0  0  0  0  0  0  0  0
   26.5850   18.8300   16.8910 C   0  0  0  0  0  0  0  0  0  0  0  0
   26.6840   20.3370   16.8900 C   0  0  0  0  0  0  0  0  0  0  0  0
   27.0590   20.9680   17.8740 O   0  0  0  0  0  0  0  0  0  0  0  0
   26.2500   20.9830   15.7600 N   0  0  0  0  0  0  0  0  0  0  0  0
   25.6710   20.4310   14.6400 C   0  0  0  0  0  0  0  0  0  0  0  0
   25.1880   21.1560   13.7710 O   0  0  0  0  0  0  0  0  0  0  0  0
   24.6840   17.3480   12.8480 C   0  0  0  0  0  0  0  0  0  0  0  0
   23.7780   16.8090   13.4540 O   0  0  0  0  0  0  0  0  0  0  0  0
   26.9460   17.3250    6.6700 C   0  0  0  0  0  0  0  0  0  0  0  0
   27.7070   16.7980    5.6690 O   0  0  0  0  0  0  0  0  0  0  0  0
   29.0910   13.4340    5.4030 C   0  0  0  0  0  0  0  0  0  0  0  0
   29.0240   10.1810    7.0650 C   0  0  0  0  0  0  0  0  0  0  0  0
   27.9220   10.1770    7.7850 N   0  0  0  0  0  0  0  0  0  0  0  0
   24.7464    9.1845    8.6779 H   0  0  0  0  0  0  0  0  0  0  0  0
   23.8606    9.4192    7.1330 H   0  0  0  0  0  0  0  0  0  0  0  0
   25.4708    8.6230    7.1330 H   0  0  0  0  0  0  0  0  0  0  0  0
   24.9466   11.3418    6.6967 H   0  0  0  0  0  0  0  0  0  0  0  0
   25.5483   11.2508    8.4086 H   0  0  0  0  0  0  0  0  0  0  0  0
   26.9119   11.3278    4.8224 H   0  0  0  0  0  0  0  0  0  0  0  0
   31.4194   12.7718    2.9716 H   0  0  0  0  0  0  0  0  0  0  0  0
   31.3953   15.2676    2.8475 H   0  0  0  0  0  0  0  0  0  0  0  0
   29.9077   16.5754    4.3541 H   0  0  0  0  0  0  0  0  0  0  0  0
   24.8053   15.1422    8.6793 H   0  0  0  0  0  0  0  0  0  0  0  0
   23.6993   15.4479   10.9121 H   0  0  0  0  0  0  0  0  0  0  0  0
   27.7535   18.1724    9.6973 H   0  0  0  0  0  0  0  0  0  0  0  0
   27.5639   18.3482   12.7572 H   0  0  0  0  0  0  0  0  0  0  0  0
   26.6965   19.6828   12.0339 H   0  0  0  0  0  0  0  0  0  0  0  0
   24.6050   18.6050   15.0911 H   0  0  0  0  0  0  0  0  0  0  0  0
   26.5266   17.1796   15.5068 H   0  0  0  0  0  0  0  0  0  0  0  0
   27.6427   18.5058   15.0409 H   0  0  0  0  0  0  0  0  0  0  0  0
   25.6266   18.5340   17.3426 H   0  0  0  0  0  0  0  0  0  0  0  0
   27.4287   18.4266   17.4702 H   0  0  0  0  0  0  0  0  0  0  0  0
   26.3724   22.0056   15.7485 H   0  0  0  0  0  0  0  0  0  0  0  0
   26.3804   18.2672    6.6217 H   0  0  0  0  0  0  0  0  0  0  0  0
   28.4369   12.9065    6.1129 H   0  0  0  0  0  0  0  0  0  0  0  0
   30.0163    9.8866    7.4373 H   0  0  0  0  0  0  0  0  0  0  0  0
  1  2  1  0
  2  3  1  0
  3  4  2  0
  4  5  1  0
  5  6  1  0
  6  7  2  0
  6  8  2  0
  6  9  1  0
  9 10  2  0
 10 11  1  0
 11 12  2  0
 12 13  1  0
 13 14  1  0
 14 15  2  0
 15 16  1  0
 16 17  1  0
 17 18  2  0
 18 19  1  0
 19 20  2  0
 20 21  1  0
 21 22  2  0
 21 23  1  0
 23 24  1  0
 24 25  1  0
 25 26  1  0
 26 27  1  0
 27 28  1  0
 28 29  2  0
 28 30  1  0
 30 31  1  0
 31 32  2  0
 24 33  1  0
 33 34  2  0
 16 35  2  0
 35 36  1  0
 13 37  2  0
  5 38  1  0
 38 39  2  0
 39  3  1  0
 37  9  1  0
 36 14  1  0
 22 17  1  0
 31 25  1  0
 33 20  1  0
  1 40  1  0
  1 41  1  0
  1 42  1  0
  2 43  1  0
  2 44  1  0
  4 45  1  0
 10 46  1  0
 11 47  1  0
 12 48  1  0
 18 49  1  0
 19 50  1  0
 22 51  1  0
 23 52  1  0
 23 53  1  0
 25 54  1  1
 26 55  1  0
 26 56  1  0
 27 57  1  0
 27 58  1  0
 30 59  1  0
 35 60  1  0
 37 61  1  0
 38 62  1  0
M  END
>  <meeko>  (212) 
{"is_sidechain": [true], "free_energy": -13.72, "intermolecular_energy": 0.0, "internal_energy": -13.72, "cluster_size": 20, "cluster_id": 1, "rank_in_cluster": 1}

>  <_RMSD_MCS_to_ref>  (212) 
0.8030063649948367

$$$$
ligand
     RDKit          3D

 59 63  0  0  0  0  0  0  0  0999 V2000
   24.8540    9.4020    7.6050 C   0  0  0  0  0  0  0  0  0  0  0  0
   25.5230   10.7550    7.4270 C   0  0  0  0  0  0  0  0  0  0  0  0
   25.3290   11.3020    6.0570 C   0  0  0  0  0  0  0  0  0  0  0  0
   24.4900   12.3170    5.6380 C   0  0  0  0  0  0  0  0  0  0  0  0
   24.7070   12.3970    4.2930 N   0  0  0  0  0  0  0  0  0  0  0  0
   24.1400   13.6060    3.2730 S   0  0  0  0  0  6  0  0  0  0  0  0
   24.5230   13.2020    1.9340 O   0  0  0  0  0  0  0  0  0  0  0  0
   22.7590   13.8390    3.6490 O   0  0  0  0  0  0  0  0  0  0  0  0
   25.0910   15.0280    3.7340 C   0  0  0  0  0  0  0  0  0  0  0  0
   25.9330   15.6370    2.7990 C   0  0  0  0  0  0  0  0  0  0  0  0
   26.6860   16.7510    3.1740 C   0  0  0  0  0  0  0  0  0  0  0  0
   26.5860   17.2610    4.4720 C   0  0  0  0  0  0  0  0  0  0  0  0
   25.7180   16.6660    5.3970 C   0  0  0  0  0  0  0  0  0  0  0  0
   25.5890   17.1700    6.7920 C   0  0  0  0  0  0  0  0  0  0  0  0
   25.9170   18.3280    7.0150 O   0  0  0  0  0  0  0  0  0  0  0  0
   25.1430   16.2420    7.7140 N   0  0  0  0  0  0  0  0  0  0  0  0
   24.8840   16.4630    9.0850 C   0  0  0  0  0  0  0  0  0  0  0  0
   23.6760   15.9280    9.5980 C   0  0  0  0  0  0  0  0  0  0  0  0
   23.3160   16.0910   10.9410 C   0  0  0  0  0  0  0  0  0  0  0  0
   24.1860   16.7990   11.7430 C   0  0  0  0  0  0  0  0  0  0  0  0
   25.3630   17.3300   11.2500 C   0  0  0  0  0  0  0  0  0  0  0  0
   25.7390   17.1820    9.9270 C   0  0  0  0  0  0  0  0  0  0  0  0
   26.0220   18.0290   12.3510 C   0  0  0  0  0  0  0  0  0  0  0  0
   27.0500   18.6660   12.2430 O   0  0  0  0  0  0  0  0  0  0  0  0
   25.2430   17.8390   13.4620 N   0  0  0  0  0  0  0  0  0  0  0  0
   25.4500   18.4880   14.7470 C   0  0  1  0  0  0  0  0  0  0  0  0
   26.5880   17.8960   15.5750 C   0  0  0  0  0  0  0  0  0  0  0  0
   26.6760   18.6340   16.9030 C   0  0  0  0  0  0  0  0  0  0  0  0
   26.8550   20.1200   16.6940 C   0  0  0  0  0  0  0  0  0  0  0  0
   27.4160   20.8350   17.5200 O   0  0  0  0  0  0  0  0  0  0  0  0
   26.3020   20.6540   15.5570 N   0  0  0  0  0  0  0  0  0  0  0  0
   25.6820   19.9860   14.5230 C   0  0  0  0  0  0  0  0  0  0  0  0
   25.2950   20.5980   13.5290 O   0  0  0  0  0  0  0  0  0  0  0  0
   24.1010   17.1480   13.1580 C   0  0  0  0  0  0  0  0  0  0  0  0
   23.1690   16.8510   13.8820 O   0  0  0  0  0  0  0  0  0  0  0  0
   24.9720   15.5400    5.0290 C   0  0  0  0  0  0  0  0  0  0  0  0
   25.6620   11.4990    3.9420 C   0  0  0  0  0  0  0  0  0  0  0  0
   26.0540   10.8060    4.9900 N   0  0  0  0  0  0  0  0  0  0  0  0
   24.7464    9.1845    8.6779 H   0  0  0  0  0  0  0  0  0  0  0  0
   23.8606    9.4192    7.1330 H   0  0  0  0  0  0  0  0  0  0  0  0
   25.4708    8.6230    7.1330 H   0  0  0  0  0  0  0  0  0  0  0  0
   25.0945   11.4605    8.1541 H   0  0  0  0  0  0  0  0  0  0  0  0
   26.6030   10.6214    7.5875 H   0  0  0  0  0  0  0  0  0  0  0  0
   23.8040   12.9221    6.2489 H   0  0  0  0  0  0  0  0  0  0  0  0
   26.0017   15.2412    1.7750 H   0  0  0  0  0  0  0  0  0  0  0  0
   27.3593   17.2285    2.4469 H   0  0  0  0  0  0  0  0  0  0  0  0
   27.1902   18.1314    4.7677 H   0  0  0  0  0  0  0  0  0  0  0  0
   24.9822   15.2868    7.3639 H   0  0  0  0  0  0  0  0  0  0  0  0
   23.0061   15.3721    8.9256 H   0  0  0  0  0  0  0  0  0  0  0  0
   22.3799   15.6725   11.3391 H   0  0  0  0  0  0  0  0  0  0  0  0
   26.6776   17.6146    9.5502 H   0  0  0  0  0  0  0  0  0  0  0  0
   24.5376   18.3143   15.3364 H   0  0  0  0  0  0  0  0  0  0  0  0
   26.3929   16.8292   15.7590 H   0  0  0  0  0  0  0  0  0  0  0  0
   27.5370   18.0026   15.0290 H   0  0  0  0  0  0  0  0  0  0  0  0
   25.7502   18.4609   17.4713 H   0  0  0  0  0  0  0  0  0  0  0  0
   27.5480   18.2533   17.4549 H   0  0  0  0  0  0  0  0  0  0  0  0
   26.3570   21.6784   15.4653 H   0  0  0  0  0  0  0  0  0  0  0  0
   24.2970   15.0616    5.7539 H   0  0  0  0  0  0  0  0  0  0  0  0
   26.0542   11.3684    2.9226 H   0  0  0  0  0  0  0  0  0  0  0  0
  1  2  1  0
  2  3  1  0
  3  4  2  0
  4  5  1  0
  5  6  1  0
  6  7  2  0
  6  8  2  0
  6  9  1  0
  9 10  2  0
 10 11  1  0
 11 12  2  0
 12 13  1  0
 13 14  1  0
 14 15  2  0
 14 16  1  0
 16 17  1  0
 17 18  2  0
 18 19  1  0
 19 20  2  0
 20 21  1  0
 21 22  2  0
 21 23  1  0
 23 24  2  0
 23 25  1  0
 25 26  1  0
 26 27  1  0
 27 28  1  0
 28 29  1  0
 29 30  2  0
 29 31  1  0
 31 32  1  0
 32 33  2  0
 25 34  1  0
 34 35  2  0
 13 36  2  0
  5 37  1  0
 37 38  2  0
 38  3  1  0
 36  9  1  0
 22 17  1  0
 32 26  1  0
 34 20  1  0
  1 39  1  0
  1 40  1  0
  1 41  1  0
  2 42  1  0
  2 43  1  0
  4 44  1  0
 10 45  1  0
 11 46  1  0
 12 47  1  0
 16 48  1  0
 18 49  1  0
 19 50  1  0
 22 51  1  0
 26 52  1  1
 27 53  1  0
 27 54  1  0
 28 55  1  0
 28 56  1  0
 31 57  1  0
 36 58  1  0
 37 59  1  0
M  END
>  <meeko>  (213) 
{"is_sidechain": [true], "free_energy": -13.71, "intermolecular_energy": 0.0, "internal_energy": -13.71, "cluster_size": 19, "cluster_id": 1, "rank_in_cluster": 1}

>  <_RMSD_MCS_to_ref>  (213) 
0.5600237718168749

$$$$
ligand
     RDKit          3D

 62 67  0  0  0  0  0  0  0  0999 V2000
   24.8540    9.4020    7.6050 C   0  0  0  0  0  0  0  0  0  0  0  0
   25.5230   10.7550    7.4270 C   0  0  0  0  0  0  0  0  0  0  0  0
   25.1450   11.4110    6.1440 C   0  0  0  0  0  0  0  0  0  0  0  0
   24.2150   12.4060    5.9250 C   0  0  0  0  0  0  0  0  0  0  0  0
   24.2730   12.6330    4.5790 N   0  0  0  0  0  0  0  0  0  0  0  0
   23.6200   13.9710    3.7720 S   0  0  0  0  0  6  0  0  0  0  0  0
   24.2390   13.9310    2.4610 O   0  0  0  0  0  0  0  0  0  0  0  0
   22.1830   13.8460    3.9320 O   0  0  0  0  0  0  0  0  0  0  0  0
   24.1290   15.3270    4.5390 O   0  0  0  0  0  0  0  0  0  0  0  0
   25.2900   15.2650    5.2520 C   0  0  0  0  0  0  0  0  0  0  0  0
   26.5270   15.1750    4.6480 C   0  0  0  0  0  0  0  0  0  0  0  0
   27.6870   15.1930    5.3400 N   0  0  0  0  0  0  0  0  0  0  0  0
   27.6320   15.2960    6.6810 C   0  0  0  0  0  0  0  0  0  0  0  0
   28.8250   15.3400    7.3850 C   0  0  0  0  0  0  0  0  0  0  0  0
   28.8560   15.4610    8.7740 C   0  0  0  0  0  0  0  0  0  0  0  0
   27.6650   15.5410    9.4850 C   0  0  0  0  0  0  0  0  0  0  0  0
   26.4310   15.4960    8.8180 C   0  0  0  0  0  0  0  0  0  0  0  0
   25.1970   15.5930    9.6080 C   0  0  0  0  0  0  0  0  0  0  0  0
   24.0280   14.9070    9.2220 C   0  0  0  0  0  0  0  0  0  0  0  0
   22.8470   14.9700    9.9850 C   0  0  0  0  0  0  0  0  0  0  0  0
   22.8010   15.7210   11.1580 C   0  0  0  0  0  0  0  0  0  0  0  0
   23.9530   16.3910   11.5240 C   0  0  0  0  0  0  0  0  0  0  0  0
   25.1320   16.3400   10.7790 C   0  0  0  0  0  0  0  0  0  0  0  0
   26.1970   17.1350   11.4640 C   0  0  0  0  0  0  0  0  0  0  0  0
   25.4890   17.7060   12.6040 N   0  0  0  0  0  0  0  0  0  0  0  0
   26.1660   18.3360   13.7310 C   0  0  2  0  0  0  0  0  0  0  0  0
   25.8700   17.6390   15.0550 C   0  0  0  0  0  0  0  0  0  0  0  0
   26.6770   18.2980   16.1630 C   0  0  0  0  0  0  0  0  0  0  0  0
   26.3990   19.7820   16.2320 C   0  0  0  0  0  0  0  0  0  0  0  0
   26.3690   20.3960   17.2940 O   0  0  0  0  0  0  0  0  0  0  0  0
   26.1980   20.4240   15.0370 N   0  0  0  0  0  0  0  0  0  0  0  0
   25.8060   19.8270   13.8600 C   0  0  0  0  0  0  0  0  0  0  0  0
   25.2060   20.4740   13.0050 O   0  0  0  0  0  0  0  0  0  0  0  0
   24.1930   17.2240   12.7070 C   0  0  0  0  0  0  0  0  0  0  0  0
   23.3880   17.4260   13.5960 O   0  0  0  0  0  0  0  0  0  0  0  0
   26.4140   15.3690    7.3980 C   0  0  0  0  0  0  0  0  0  0  0  0
   25.2300   15.3210    6.6370 C   0  0  0  0  0  0  0  0  0  0  0  0
   25.2230   11.8270    4.0350 C   0  0  0  0  0  0  0  0  0  0  0  0
   25.7680   11.0640    4.9610 N   0  0  0  0  0  0  0  0  0  0  0  0
   24.7464    9.1845    8.6779 H   0  0  0  0  0  0  0  0  0  0  0  0
   23.8606    9.4192    7.1330 H   0  0  0  0  0  0  0  0  0  0  0  0
   25.4708    8.6230    7.1330 H   0  0  0  0  0  0  0  0  0  0  0  0
   25.2244   11.4090    8.2595 H   0  0  0  0  0  0  0  0  0  0  0  0
   26.6108   10.5920    7.4126 H   0  0  0  0  0  0  0  0  0  0  0  0
   23.5724   12.9038    6.6661 H   0  0  0  0  0  0  0  0  0  0  0  0
   26.5708   15.0844    3.5526 H   0  0  0  0  0  0  0  0  0  0  0  0
   29.7742   15.2777    6.8326 H   0  0  0  0  0  0  0  0  0  0  0  0
   29.8192   15.4930    9.3044 H   0  0  0  0  0  0  0  0  0  0  0  0
   27.6895   15.6405   10.5802 H   0  0  0  0  0  0  0  0  0  0  0  0
   24.0389   14.3067    8.3003 H   0  0  0  0  0  0  0  0  0  0  0  0
   21.9530   14.4220    9.6527 H   0  0  0  0  0  0  0  0  0  0  0  0
   21.8866   15.7781   11.7667 H   0  0  0  0  0  0  0  0  0  0  0  0
   27.0238   16.4888   11.7939 H   0  0  0  0  0  0  0  0  0  0  0  0
   26.6613   17.8923   10.8152 H   0  0  0  0  0  0  0  0  0  0  0  0
   27.2405   18.2402   13.5157 H   0  0  0  0  0  0  0  0  0  0  0  0
   24.7971   17.7231   15.2824 H   0  0  0  0  0  0  0  0  0  0  0  0
   26.1455   16.5766   14.9812 H   0  0  0  0  0  0  0  0  0  0  0  0
   26.4086   17.8374   17.1252 H   0  0  0  0  0  0  0  0  0  0  0  0
   27.7462   18.1532   15.9490 H   0  0  0  0  0  0  0  0  0  0  0  0
   26.3540   21.4420   15.0184 H   0  0  0  0  0  0  0  0  0  0  0  0
   24.2533   15.3279    7.1429 H   0  0  0  0  0  0  0  0  0  0  0  0
   25.4984   11.8136    2.9701 H   0  0  0  0  0  0  0  0  0  0  0  0
  1  2  1  0
  2  3  1  0
  3  4  2  0
  4  5  1  0
  5  6  1  0
  6  7  2  0
  6  8  2  0
  6  9  1  0
  9 10  1  0
 10 11  2  0
 11 12  1  0
 12 13  2  0
 13 14  1  0
 14 15  2  0
 15 16  1  0
 16 17  2  0
 17 18  1  0
 18 19  2  0
 19 20  1  0
 20 21  2  0
 21 22  1  0
 22 23  2  0
 23 24  1  0
 24 25  1  0
 25 26  1  0
 26 27  1  0
 27 28  1  0
 28 29  1  0
 29 30  2  0
 29 31  1  0
 31 32  1  0
 32 33  2  0
 25 34  1  0
 34 35  2  0
 17 36  1  0
 36 37  2  0
  5 38  1  0
 38 39  2  0
 39  3  1  0
 37 10  1  0
 36 13  1  0
 23 18  1  0
 32 26  1  0
 34 22  1  0
  1 40  1  0
  1 41  1  0
  1 42  1  0
  2 43  1  0
  2 44  1  0
  4 45  1  0
 11 46  1  0
 14 47  1  0
 15 48  1  0
 16 49  1  0
 19 50  1  0
 20 51  1  0
 21 52  1  0
 24 53  1  0
 24 54  1  0
 26 55  1  6
 27 56  1  0
 27 57  1  0
 28 58  1  0
 28 59  1  0
 31 60  1  0
 37 61  1  0
 38 62  1  0
M  END
>  <meeko>  (214) 
{"is_sidechain": [true], "free_energy": -13.71, "intermolecular_energy": 0.0, "internal_energy": -13.71, "cluster_size": 14, "cluster_id": 1, "rank_in_cluster": 1}

>  <_RMSD_MCS_to_ref>  (214) 
0.9408907127468803

$$$$
ligand
     RDKit          3D

 60 65  0  0  0  0  0  0  0  0999 V2000
   24.8710    9.6160    7.7820 C   0  0  0  0  0  0  0  0  0  0  0  0
   25.4240   10.9650    7.3490 C   0  0  0  0  0  0  0  0  0  0  0  0
   26.8670   11.1150    7.6800 C   0  0  0  0  0  0  0  0  0  0  0  0
   27.4580   11.8950    8.6540 C   0  0  0  0  0  0  0  0  0  0  0  0
   28.7920   11.6270    8.5340 N   0  0  0  0  0  0  0  0  0  0  0  0
   30.0380   12.4650    9.2990 S   0  0  0  0  0  6  0  0  0  0  0  0
   31.1770   11.5690    9.2420 O   0  0  0  0  0  0  0  0  0  0  0  0
   29.4720   12.8910   10.5670 O   0  0  0  0  0  0  0  0  0  0  0  0
   30.3330   13.7710    8.3750 O   0  0  0  0  0  0  0  0  0  0  0  0
   29.4260   14.2200    7.5230 C   0  0  0  0  0  0  0  0  0  0  0  0
   29.3030   14.3170    6.1540 C   0  0  0  0  0  0  0  0  0  0  0  0
   28.0410   14.9200    5.9050 C   0  0  0  0  0  0  0  0  0  0  0  0
   27.3310   15.2960    4.7520 C   0  0  0  0  0  0  0  0  0  0  0  0
   26.0730   15.8880    4.9020 C   0  0  0  0  0  0  0  0  0  0  0  0
   25.5280   16.1030    6.1720 C   0  0  0  0  0  0  0  0  0  0  0  0
   26.2060   15.7370    7.3530 C   0  0  0  0  0  0  0  0  0  0  0  0
   25.6440   15.9590    8.6910 C   0  0  0  0  0  0  0  0  0  0  0  0
   24.4130   15.3660    9.0760 C   0  0  0  0  0  0  0  0  0  0  0  0
   23.8470   15.5710   10.3430 C   0  0  0  0  0  0  0  0  0  0  0  0
   24.5260   16.3770   11.2340 C   0  0  0  0  0  0  0  0  0  0  0  0
   25.7330   16.9610   10.8640 C   0  0  0  0  0  0  0  0  0  0  0  0
   26.3090   16.7780    9.6200 C   0  0  0  0  0  0  0  0  0  0  0  0
   26.2190   17.7590   11.9940 C   0  0  0  0  0  0  0  0  0  0  0  0
   27.2220   18.4470   11.9860 O   0  0  0  0  0  0  0  0  0  0  0  0
   25.3230   17.5690   13.0350 N   0  0  0  0  0  0  0  0  0  0  0  0
   25.3470   18.3950   14.2360 C   0  0  2  0  0  0  0  0  0  0  0  0
   26.0350   19.7370   14.0070 C   0  0  0  0  0  0  0  0  0  0  0  0
   25.9390   20.5760   15.2720 C   0  0  0  0  0  0  0  0  0  0  0  0
   26.5170   19.8410   16.4590 C   0  0  0  0  0  0  0  0  0  0  0  0
   27.1290   20.4160   17.3540 O   0  0  0  0  0  0  0  0  0  0  0  0
   26.3070   18.4860   16.5020 N   0  0  0  0  0  0  0  0  0  0  0  0
   26.0220   17.6830   15.4200 C   0  0  0  0  0  0  0  0  0  0  0  0
   26.3150   16.4900   15.4420 O   0  0  0  0  0  0  0  0  0  0  0  0
   24.1660   16.7830   12.6240 C   0  0  0  0  0  0  0  0  0  0  0  0
   27.4660   15.1480    7.1530 C   0  0  0  0  0  0  0  0  0  0  0  0
   28.3190   14.7190    8.1320 O   0  0  0  0  0  0  0  0  0  0  0  0
   28.9840   10.7900    7.4820 C   0  0  0  0  0  0  0  0  0  0  0  0
   27.8290   10.4370    6.9570 N   0  0  0  0  0  0  0  0  0  0  0  0
   24.8497    9.5640    8.8806 H   0  0  0  0  0  0  0  0  0  0  0  0
   23.8507    9.4948    7.3893 H   0  0  0  0  0  0  0  0  0  0  0  0
   25.5127    8.8135    7.3893 H   0  0  0  0  0  0  0  0  0  0  0  0
   25.2980   11.0665    6.2610 H   0  0  0  0  0  0  0  0  0  0  0  0
   24.8708   11.7459    7.8914 H   0  0  0  0  0  0  0  0  0  0  0  0
   26.9669   12.5764    9.3642 H   0  0  0  0  0  0  0  0  0  0  0  0
   30.0372   13.9917    5.4022 H   0  0  0  0  0  0  0  0  0  0  0  0
   27.7563   15.1280    3.7515 H   0  0  0  0  0  0  0  0  0  0  0  0
   25.5046   16.1885    4.0095 H   0  0  0  0  0  0  0  0  0  0  0  0
   24.5370   16.5735    6.2523 H   0  0  0  0  0  0  0  0  0  0  0  0
   23.8848   14.7236    8.3560 H   0  0  0  0  0  0  0  0  0  0  0  0
   22.8902   15.1032   10.6182 H   0  0  0  0  0  0  0  0  0  0  0  0
   27.2635   17.2612    9.3640 H   0  0  0  0  0  0  0  0  0  0  0  0
   24.2905   18.5762   14.4827 H   0  0  0  0  0  0  0  0  0  0  0  0
   27.0931   19.5692   13.7573 H   0  0  0  0  0  0  0  0  0  0  0  0
   25.5428   20.2655   13.1772 H   0  0  0  0  0  0  0  0  0  0  0  0
   26.4956   21.5132   15.1243 H   0  0  0  0  0  0  0  0  0  0  0  0
   24.8777   20.7835   15.4732 H   0  0  0  0  0  0  0  0  0  0  0  0
   26.3677   18.0296   17.4234 H   0  0  0  0  0  0  0  0  0  0  0  0
   24.0321   15.9045   13.2723 H   0  0  0  0  0  0  0  0  0  0  0  0
   23.2169   17.3355   12.6866 H   0  0  0  0  0  0  0  0  0  0  0  0
   29.9666   10.4540    7.1192 H   0  0  0  0  0  0  0  0  0  0  0  0
  1  2  1  0
  2  3  1  0
  3  4  2  0
  4  5  1  0
  5  6  1  0
  6  7  2  0
  6  8  2  0
  6  9  1  0
  9 10  1  0
 10 11  2  0
 11 12  1  0
 12 13  2  0
 13 14  1  0
 14 15  2  0
 15 16  1  0
 16 17  1  0
 17 18  2  0
 18 19  1  0
 19 20  2  0
 20 21  1  0
 21 22  2  0
 21 23  1  0
 23 24  2  0
 23 25  1  0
 25 26  1  0
 26 27  1  0
 27 28  1  0
 28 29  1  0
 29 30  2  0
 29 31  1  0
 31 32  1  0
 32 33  2  0
 25 34  1  0
 16 35  2  0
 35 36  1  0
  5 37  1  0
 37 38  2  0
 38  3  1  0
 36 10  1  0
 35 12  1  0
 22 17  1  0
 32 26  1  0
 34 20  1  0
  1 39  1  0
  1 40  1  0
  1 41  1  0
  2 42  1  0
  2 43  1  0
  4 44  1  0
 11 45  1  0
 13 46  1  0
 14 47  1  0
 15 48  1  0
 18 49  1  0
 19 50  1  0
 22 51  1  0
 26 52  1  1
 27 53  1  0
 27 54  1  0
 28 55  1  0
 28 56  1  0
 31 57  1  0
 34 58  1  0
 34 59  1  0
 37 60  1  0
M  END
>  <meeko>  (215) 
{"is_sidechain": [true], "free_energy": -13.7, "intermolecular_energy": 0.0, "internal_energy": -13.7, "cluster_size": 18, "cluster_id": 1, "rank_in_cluster": 1}

>  <_RMSD_MCS_to_ref>  (215) 
1.6787672229612087

$$$$
ligand
     RDKit          3D

 60 65  0  0  0  0  0  0  0  0999 V2000
   24.8710    9.6160    7.7820 C   0  0  0  0  0  0  0  0  0  0  0  0
   25.4240   10.9650    7.3490 C   0  0  0  0  0  0  0  0  0  0  0  0
   26.9040   10.9420    7.1960 C   0  0  0  0  0  0  0  0  0  0  0  0
   27.8590   11.6710    7.8760 C   0  0  0  0  0  0  0  0  0  0  0  0
   29.0470   11.2290    7.3650 N   0  0  0  0  0  0  0  0  0  0  0  0
   30.5600   11.9210    7.6380 S   0  0  0  0  0  6  0  0  0  0  0  0
   31.5010   10.9430    7.1250 O   0  0  0  0  0  0  0  0  0  0  0  0
   30.5360   12.2950    9.0410 O   0  0  0  0  0  0  0  0  0  0  0  0
   30.5990   13.2600    6.7170 O   0  0  0  0  0  0  0  0  0  0  0  0
   29.5530   13.7450    6.0210 C   0  0  0  0  0  0  0  0  0  0  0  0
   29.5630   13.6570    4.6480 C   0  0  0  0  0  0  0  0  0  0  0  0
   28.4080   14.2210    4.1850 N   0  0  0  0  0  0  0  0  0  0  0  0
   27.6440   14.6710    5.2370 C   0  0  0  0  0  0  0  0  0  0  0  0
   26.4000   15.3080    5.2180 C   0  0  0  0  0  0  0  0  0  0  0  0
   25.8310   15.6660    6.4450 C   0  0  0  0  0  0  0  0  0  0  0  0
   26.4700   15.4000    7.6630 C   0  0  0  0  0  0  0  0  0  0  0  0
   25.8520   15.7870    8.9450 C   0  0  0  0  0  0  0  0  0  0  0  0
   24.5610   15.3060    9.2980 C   0  0  0  0  0  0  0  0  0  0  0  0
   23.9420   15.6580   10.5050 C   0  0  0  0  0  0  0  0  0  0  0  0
   24.6420   16.4940   11.3480 C   0  0  0  0  0  0  0  0  0  0  0  0
   25.8960   16.9720   11.0240 C   0  0  0  0  0  0  0  0  0  0  0  0
   26.5250   16.6420    9.8380 C   0  0  0  0  0  0  0  0  0  0  0  0
   26.3390   17.8250   12.1240 C   0  0  0  0  0  0  0  0  0  0  0  0
   27.4000   18.4190   12.1490 O   0  0  0  0  0  0  0  0  0  0  0  0
   25.3500   17.7920   13.0710 N   0  0  0  0  0  0  0  0  0  0  0  0
   25.3690   18.6320   14.2580 C   0  0  2  0  0  0  0  0  0  0  0  0
   26.0260   19.9940   14.0530 C   0  0  0  0  0  0  0  0  0  0  0  0
   25.9480   20.7880   15.3490 C   0  0  0  0  0  0  0  0  0  0  0  0
   26.5800   20.0330   16.4950 C   0  0  0  0  0  0  0  0  0  0  0  0
   27.0770   20.6030   17.4610 O   0  0  0  0  0  0  0  0  0  0  0  0
   26.5210   18.6620   16.4350 N   0  0  0  0  0  0  0  0  0  0  0  0
   26.0570   17.8800   15.4010 C   0  0  0  0  0  0  0  0  0  0  0  0
   26.1510   16.6550   15.4570 O   0  0  0  0  0  0  0  0  0  0  0  0
   24.2820   17.0460   12.6530 C   0  0  0  0  0  0  0  0  0  0  0  0
   23.2150   16.8570   13.2050 O   0  0  0  0  0  0  0  0  0  0  0  0
   27.7230   14.7510    7.6380 C   0  0  0  0  0  0  0  0  0  0  0  0
   28.3360   14.3820    6.4180 C   0  0  0  0  0  0  0  0  0  0  0  0
   28.7960   10.3410    6.3670 C   0  0  0  0  0  0  0  0  0  0  0  0
   27.5020   10.1250    6.2560 N   0  0  0  0  0  0  0  0  0  0  0  0
   24.8497    9.5640    8.8806 H   0  0  0  0  0  0  0  0  0  0  0  0
   23.8507    9.4948    7.3893 H   0  0  0  0  0  0  0  0  0  0  0  0
   25.5127    8.8135    7.3893 H   0  0  0  0  0  0  0  0  0  0  0  0
   24.9722   11.2402    6.3845 H   0  0  0  0  0  0  0  0  0  0  0  0
   25.1763   11.6985    8.1304 H   0  0  0  0  0  0  0  0  0  0  0  0
   27.7000   12.4339    8.6523 H   0  0  0  0  0  0  0  0  0  0  0  0
   30.3589   13.2119    4.0328 H   0  0  0  0  0  0  0  0  0  0  0  0
   28.1469   14.2982    3.1916 H   0  0  0  0  0  0  0  0  0  0  0  0
   25.8852   15.5209    4.2695 H   0  0  0  0  0  0  0  0  0  0  0  0
   24.8537   16.1709    6.4536 H   0  0  0  0  0  0  0  0  0  0  0  0
   24.0324   14.6375    8.6026 H   0  0  0  0  0  0  0  0  0  0  0  0
   22.9417   15.2836   10.7680 H   0  0  0  0  0  0  0  0  0  0  0  0
   27.5236   17.0366    9.5988 H   0  0  0  0  0  0  0  0  0  0  0  0
   24.3187   18.8454   14.5054 H   0  0  0  0  0  0  0  0  0  0  0  0
   27.0798   19.8551   13.7696 H   0  0  0  0  0  0  0  0  0  0  0  0
   25.5033   20.5396   13.2536 H   0  0  0  0  0  0  0  0  0  0  0  0
   26.4755   21.7440   15.2157 H   0  0  0  0  0  0  0  0  0  0  0  0
   24.8879   20.9581   15.5883 H   0  0  0  0  0  0  0  0  0  0  0  0
   26.8657   18.1576   17.2642 H   0  0  0  0  0  0  0  0  0  0  0  0
   28.2332   14.5276    8.5866 H   0  0  0  0  0  0  0  0  0  0  0  0
   29.5664    9.8688    5.7397 H   0  0  0  0  0  0  0  0  0  0  0  0
  1  2  1  0
  2  3  1  0
  3  4  2  0
  4  5  1  0
  5  6  1  0
  6  7  2  0
  6  8  2  0
  6  9  1  0
  9 10  1  0
 10 11  2  0
 11 12  1  0
 12 13  1  0
 13 14  2  0
 14 15  1  0
 15 16  2  0
 16 17  1  0
 17 18  2  0
 18 19  1  0
 19 20  2  0
 20 21  1  0
 21 22  2  0
 21 23  1  0
 23 24  2  0
 23 25  1  0
 25 26  1  0
 26 27  1  0
 27 28  1  0
 28 29  1  0
 29 30  2  0
 29 31  1  0
 31 32  1  0
 32 33  2  0
 25 34  1  0
 34 35  2  0
 16 36  1  0
 36 37  2  0
  5 38  1  0
 38 39  2  0
 39  3  1  0
 37 10  1  0
 37 13  1  0
 22 17  1  0
 32 26  1  0
 34 20  1  0
  1 40  1  0
  1 41  1  0
  1 42  1  0
  2 43  1  0
  2 44  1  0
  4 45  1  0
 11 46  1  0
 12 47  1  0
 14 48  1  0
 15 49  1  0
 18 50  1  0
 19 51  1  0
 22 52  1  0
 26 53  1  1
 27 54  1  0
 27 55  1  0
 28 56  1  0
 28 57  1  0
 31 58  1  0
 36 59  1  0
 38 60  1  0
M  END
>  <meeko>  (216) 
{"is_sidechain": [true], "free_energy": -13.7, "intermolecular_energy": 0.0, "internal_energy": -13.7, "cluster_size": 18, "cluster_id": 1, "rank_in_cluster": 1}

>  <_RMSD_MCS_to_ref>  (216) 
1.6557320053934483

$$$$
ligand
     RDKit          3D

 61 66  0  0  0  0  0  0  0  0999 V2000
   24.8540    9.4020    7.6050 C   0  0  0  0  0  0  0  0  0  0  0  0
   25.5230   10.7550    7.4270 C   0  0  0  0  0  0  0  0  0  0  0  0
   25.3320   11.2980    6.0540 C   0  0  0  0  0  0  0  0  0  0  0  0
   26.0890   12.2350    5.3790 C   0  0  0  0  0  0  0  0  0  0  0  0
   25.4850   12.3290    4.1580 N   0  0  0  0  0  0  0  0  0  0  0  0
   25.9500   13.3580    2.9100 S   0  0  0  0  0  6  0  0  0  0  0  0
   27.0300   12.6800    2.2140 O   0  0  0  0  0  0  0  0  0  0  0  0
   24.7030   13.6480    2.2240 O   0  0  0  0  0  0  0  0  0  0  0  0
   26.4830   14.7580    3.5740 O   0  0  0  0  0  0  0  0  0  0  0  0
   26.1740   15.0360    4.8870 C   0  0  0  0  0  0  0  0  0  0  0  0
   24.8400   15.3340    5.1630 C   0  0  0  0  0  0  0  0  0  0  0  0
   24.4600   15.6180    6.4700 C   0  0  0  0  0  0  0  0  0  0  0  0
   25.4050   15.5900    7.5060 C   0  0  0  0  0  0  0  0  0  0  0  0
   24.9660   15.9110    8.8710 C   0  0  0  0  0  0  0  0  0  0  0  0
   23.8180   15.2850    9.4170 C   0  0  0  0  0  0  0  0  0  0  0  0
   23.3830   15.5720   10.7140 C   0  0  0  0  0  0  0  0  0  0  0  0
   24.1130   16.4920   11.4380 C   0  0  0  0  0  0  0  0  0  0  0  0
   25.2450   17.1240   10.9300 C   0  0  0  0  0  0  0  0  0  0  0  0
   25.6840   16.8440    9.6460 C   0  0  0  0  0  0  0  0  0  0  0  0
   25.8230   18.0360   11.9590 C   0  0  0  0  0  0  0  0  0  0  0  0
   24.8540   17.9500   13.0430 N   0  0  0  0  0  0  0  0  0  0  0  0
   25.1400   18.5170   14.3580 C   0  0  1  0  0  0  0  0  0  0  0  0
   26.3090   17.8450   15.0790 C   0  0  0  0  0  0  0  0  0  0  0  0
   26.4770   18.4690   16.4540 C   0  0  0  0  0  0  0  0  0  0  0  0
   26.6790   19.9630   16.3580 C   0  0  0  0  0  0  0  0  0  0  0  0
   27.2380   20.6070   17.2420 O   0  0  0  0  0  0  0  0  0  0  0  0
   26.1300   20.5900   15.2670 N   0  0  0  0  0  0  0  0  0  0  0  0
   25.3600   20.0350   14.2710 C   0  0  0  0  0  0  0  0  0  0  0  0
   24.8100   20.7530   13.4380 O   0  0  0  0  0  0  0  0  0  0  0  0
   23.8950   16.9770   12.8050 C   0  0  0  0  0  0  0  0  0  0  0  0
   23.0340   16.5600   13.5550 O   0  0  0  0  0  0  0  0  0  0  0  0
   26.7570   15.2490    7.2010 C   0  0  0  0  0  0  0  0  0  0  0  0
   27.7900   15.1550    8.1360 C   0  0  0  0  0  0  0  0  0  0  0  0
   29.0630   14.8260    7.8420 N   0  0  0  0  0  0  0  0  0  0  0  0
   29.3090   14.5770    6.5550 C   0  0  0  0  0  0  0  0  0  0  0  0
   28.4080   14.6290    5.5620 N   0  0  0  0  0  0  0  0  0  0  0  0
   27.1470   14.9670    5.8840 C   0  0  0  0  0  0  0  0  0  0  0  0
   24.3870   11.5330    4.1360 C   0  0  0  0  0  0  0  0  0  0  0  0
   24.2790   10.8680    5.2700 N   0  0  0  0  0  0  0  0  0  0  0  0
   24.7464    9.1845    8.6779 H   0  0  0  0  0  0  0  0  0  0  0  0
   23.8606    9.4192    7.1330 H   0  0  0  0  0  0  0  0  0  0  0  0
   25.4708    8.6230    7.1330 H   0  0  0  0  0  0  0  0  0  0  0  0
   25.0918   11.4619    8.1511 H   0  0  0  0  0  0  0  0  0  0  0  0
   26.6026   10.6234    7.5920 H   0  0  0  0  0  0  0  0  0  0  0  0
   26.9736   12.7795    5.7410 H   0  0  0  0  0  0  0  0  0  0  0  0
   24.0949   15.3443    4.3539 H   0  0  0  0  0  0  0  0  0  0  0  0
   23.4118   15.8662    6.6928 H   0  0  0  0  0  0  0  0  0  0  0  0
   23.2584   14.5593    8.8085 H   0  0  0  0  0  0  0  0  0  0  0  0
   22.4942   15.0839   11.1404 H   0  0  0  0  0  0  0  0  0  0  0  0
   26.5769   17.3409    9.2388 H   0  0  0  0  0  0  0  0  0  0  0  0
   26.8146   17.6888   12.2848 H   0  0  0  0  0  0  0  0  0  0  0  0
   25.9804   19.0618   11.5944 H   0  0  0  0  0  0  0  0  0  0  0  0
   24.2466   18.3158   14.9674 H   0  0  0  0  0  0  0  0  0  0  0  0
   26.1051   16.7694   15.1861 H   0  0  0  0  0  0  0  0  0  0  0  0
   27.2311   17.9852   14.4958 H   0  0  0  0  0  0  0  0  0  0  0  0
   25.5759   18.2670   17.0517 H   0  0  0  0  0  0  0  0  0  0  0  0
   27.3660   18.0283   16.9289 H   0  0  0  0  0  0  0  0  0  0  0  0
   26.3175   21.5994   15.1840 H   0  0  0  0  0  0  0  0  0  0  0  0
   27.5469   15.3646    9.1881 H   0  0  0  0  0  0  0  0  0  0  0  0
   30.3400   14.3054    6.2841 H   0  0  0  0  0  0  0  0  0  0  0  0
   23.6860   11.4533    3.2921 H   0  0  0  0  0  0  0  0  0  0  0  0
  1  2  1  0
  2  3  1  0
  3  4  2  0
  4  5  1  0
  5  6  1  0
  6  7  2  0
  6  8  2  0
  6  9  1  0
  9 10  1  0
 10 11  2  0
 11 12  1  0
 12 13  2  0
 13 14  1  0
 14 15  2  0
 15 16  1  0
 16 17  2  0
 17 18  1  0
 18 19  2  0
 18 20  1  0
 20 21  1  0
 21 22  1  0
 22 23  1  0
 23 24  1  0
 24 25  1  0
 25 26  2  0
 25 27  1  0
 27 28  1  0
 28 29  2  0
 21 30  1  0
 30 31  2  0
 13 32  1  0
 32 33  2  0
 33 34  1  0
 34 35  2  0
 35 36  1  0
 36 37  2  0
  5 38  1  0
 38 39  2  0
 39  3  1  0
 37 10  1  0
 19 14  1  0
 28 22  1  0
 37 32  1  0
 30 17  1  0
  1 40  1  0
  1 41  1  0
  1 42  1  0
  2 43  1  0
  2 44  1  0
  4 45  1  0
 11 46  1  0
 12 47  1  0
 15 48  1  0
 16 49  1  0
 19 50  1  0
 20 51  1  0
 20 52  1  0
 22 53  1  1
 23 54  1  0
 23 55  1  0
 24 56  1  0
 24 57  1  0
 27 58  1  0
 33 59  1  0
 35 60  1  0
 38 61  1  0
M  END
>  <meeko>  (217) 
{"is_sidechain": [true], "free_energy": -13.68, "intermolecular_energy": 0.0, "internal_energy": -13.68, "cluster_size": 18, "cluster_id": 1, "rank_in_cluster": 1}

>  <_RMSD_MCS_to_ref>  (217) 
0.4254209679834781

$$$$
ligand
     RDKit          3D

 56 60  0  0  0  0  0  0  0  0999 V2000
   24.8540    9.4020    7.6050 C   0  0  0  0  0  0  0  0  0  0  0  0
   25.5230   10.7550    7.4270 C   0  0  0  0  0  0  0  0  0  0  0  0
   24.7700   11.6370    6.4950 C   0  0  0  0  0  0  0  0  0  0  0  0
   25.1970   12.2310    5.3230 C   0  0  0  0  0  0  0  0  0  0  0  0
   24.0950   12.8910    4.8600 N   0  0  0  0  0  0  0  0  0  0  0  0
   24.0730   14.0020    3.5930 S   0  0  0  0  0  6  0  0  0  0  0  0
   25.0350   13.4900    2.6360 O   0  0  0  0  0  0  0  0  0  0  0  0
   22.6700   14.1520    3.2580 O   0  0  0  0  0  0  0  0  0  0  0  0
   24.6270   15.4030    4.2170 O   0  0  0  0  0  0  0  0  0  0  0  0
   25.3330   15.4630    5.3920 C   0  0  0  0  0  0  0  0  0  0  0  0
   26.6910   15.1900    5.2750 C   0  0  0  0  0  0  0  0  0  0  0  0
   27.4630   15.2250    6.4180 C   0  0  0  0  0  0  0  0  0  0  0  0
   26.9740   15.5110    7.6410 N   0  0  0  0  0  0  0  0  0  0  0  0
   25.6500   15.7880    7.7540 C   0  0  0  0  0  0  0  0  0  0  0  0
   25.1790   16.1030    9.1210 C   0  0  0  0  0  0  0  0  0  0  0  0
   23.9000   15.6590    9.5580 C   0  0  0  0  0  0  0  0  0  0  0  0
   23.4020   15.9310   10.8410 C   0  0  0  0  0  0  0  0  0  0  0  0
   24.2010   16.6530   11.7040 C   0  0  0  0  0  0  0  0  0  0  0  0
   25.4560   17.0860   11.2910 C   0  0  0  0  0  0  0  0  0  0  0  0
   25.9670   16.8330   10.0290 C   0  0  0  0  0  0  0  0  0  0  0  0
   26.0740   17.8160   12.4040 C   0  0  0  0  0  0  0  0  0  0  0  0
   27.1420   18.3930   12.3420 O   0  0  0  0  0  0  0  0  0  0  0  0
   25.2020   17.7220   13.4790 N   0  0  0  0  0  0  0  0  0  0  0  0
   25.3280   18.4970   14.7100 C   0  0  1  0  0  0  0  0  0  0  0  0
   26.3330   17.9140   15.7030 C   0  0  0  0  0  0  0  0  0  0  0  0
   26.3390   18.7600   16.9670 C   0  0  0  0  0  0  0  0  0  0  0  0
   26.6490   20.2050   16.6580 C   0  0  0  0  0  0  0  0  0  0  0  0
   27.1070   20.9700   17.5020 O   0  0  0  0  0  0  0  0  0  0  0  0
   26.3150   20.6530   15.4050 N   0  0  0  0  0  0  0  0  0  0  0  0
   25.6560   19.9680   14.4100 C   0  0  0  0  0  0  0  0  0  0  0  0
   25.2720   20.5570   13.4000 O   0  0  0  0  0  0  0  0  0  0  0  0
   23.9390   17.1030   13.1010 C   0  0  0  0  0  0  0  0  0  0  0  0
   24.8020   15.7630    6.6450 C   0  0  0  0  0  0  0  0  0  0  0  0
   23.0880   12.7600    5.7620 C   0  0  0  0  0  0  0  0  0  0  0  0
   23.4580   11.9830    6.7570 N   0  0  0  0  0  0  0  0  0  0  0  0
   24.7464    9.1845    8.6779 H   0  0  0  0  0  0  0  0  0  0  0  0
   23.8606    9.4192    7.1330 H   0  0  0  0  0  0  0  0  0  0  0  0
   25.4708    8.6230    7.1330 H   0  0  0  0  0  0  0  0  0  0  0  0
   25.5883   11.2495    8.4074 H   0  0  0  0  0  0  0  0  0  0  0  0
   26.5210   10.5839    6.9972 H   0  0  0  0  0  0  0  0  0  0  0  0
   26.1968   12.1831    4.8669 H   0  0  0  0  0  0  0  0  0  0  0  0
   27.1377   14.9526    4.2982 H   0  0  0  0  0  0  0  0  0  0  0  0
   28.5373   15.0074    6.3260 H   0  0  0  0  0  0  0  0  0  0  0  0
   23.2764   15.0790    8.8618 H   0  0  0  0  0  0  0  0  0  0  0  0
   22.4062   15.5799   11.1493 H   0  0  0  0  0  0  0  0  0  0  0  0
   26.9659   17.1945    9.7434 H   0  0  0  0  0  0  0  0  0  0  0  0
   24.3436   18.4405   15.1975 H   0  0  0  0  0  0  0  0  0  0  0  0
   26.0462   16.8819   15.9530 H   0  0  0  0  0  0  0  0  0  0  0  0
   27.3373   17.9147   15.2543 H   0  0  0  0  0  0  0  0  0  0  0  0
   25.3493   18.6997   17.4433 H   0  0  0  0  0  0  0  0  0  0  0  0
   27.1187   18.3737   17.6399 H   0  0  0  0  0  0  0  0  0  0  0  0
   26.5912   21.6199   15.1819 H   0  0  0  0  0  0  0  0  0  0  0  0
   23.7035   16.2504   13.7550 H   0  0  0  0  0  0  0  0  0  0  0  0
   23.0770   17.7809   13.1873 H   0  0  0  0  0  0  0  0  0  0  0  0
   23.7291   15.9773    6.7589 H   0  0  0  0  0  0  0  0  0  0  0  0
   22.1008   13.2370    5.6730 H   0  0  0  0  0  0  0  0  0  0  0  0
  1  2  1  0
  2  3  1  0
  3  4  2  0
  4  5  1  0
  5  6  1  0
  6  7  2  0
  6  8  2  0
  6  9  1  0
  9 10  1  0
 10 11  2  0
 11 12  1  0
 12 13  2  0
 13 14  1  0
 14 15  1  0
 15 16  2  0
 16 17  1  0
 17 18  2  0
 18 19  1  0
 19 20  2  0
 19 21  1  0
 21 22  2  0
 21 23  1  0
 23 24  1  0
 24 25  1  0
 25 26  1  0
 26 27  1  0
 27 28  2  0
 27 29  1  0
 29 30  1  0
 30 31  2  0
 23 32  1  0
 14 33  2  0
  5 34  1  0
 34 35  2  0
 35  3  1  0
 33 10  1  0
 20 15  1  0
 30 24  1  0
 32 18  1  0
  1 36  1  0
  1 37  1  0
  1 38  1  0
  2 39  1  0
  2 40  1  0
  4 41  1  0
 11 42  1  0
 12 43  1  0
 16 44  1  0
 17 45  1  0
 20 46  1  0
 24 47  1  1
 25 48  1  0
 25 49  1  0
 26 50  1  0
 26 51  1  0
 29 52  1  0
 32 53  1  0
 32 54  1  0
 33 55  1  0
 34 56  1  0
M  END
>  <meeko>  (218) 
{"is_sidechain": [true], "free_energy": -13.67, "intermolecular_energy": 0.0, "internal_energy": -13.67, "cluster_size": 19, "cluster_id": 1, "rank_in_cluster": 1}

>  <_RMSD_MCS_to_ref>  (218) 
0.5242588419219382

$$$$
ligand
     RDKit          3D

 60 65  0  0  0  0  0  0  0  0999 V2000
   24.8540    9.4020    7.6050 C   0  0  0  0  0  0  0  0  0  0  0  0
   25.5230   10.7550    7.4270 C   0  0  0  0  0  0  0  0  0  0  0  0
   25.9020   11.0130    6.0110 C   0  0  0  0  0  0  0  0  0  0  0  0
   27.1280   11.3840    5.4930 C   0  0  0  0  0  0  0  0  0  0  0  0
   26.9160   11.4490    4.1450 N   0  0  0  0  0  0  0  0  0  0  0  0
   27.9820   12.0970    3.0120 S   0  0  0  0  0  6  0  0  0  0  0  0
   27.3850   11.7920    1.7260 O   0  0  0  0  0  0  0  0  0  0  0  0
   29.2840   11.5810    3.3920 O   0  0  0  0  0  0  0  0  0  0  0  0
   27.9550   13.7110    3.2460 O   0  0  0  0  0  0  0  0  0  0  0  0
   27.1990   14.3380    4.2130 C   0  0  0  0  0  0  0  0  0  0  0  0
   26.1600   15.1950    3.6480 C   0  0  0  0  0  0  0  0  0  0  0  0
   25.3410   15.8730    4.4690 C   0  0  0  0  0  0  0  0  0  0  0  0
   25.5030   15.7420    5.8440 N   0  0  0  0  0  0  0  0  0  0  0  0
   24.8000   16.3240    6.8670 C   0  0  0  0  0  0  0  0  0  0  0  0
   25.3730   15.8510    8.0300 C   0  0  0  0  0  0  0  0  0  0  0  0
   24.9750   16.1770    9.3930 C   0  0  0  0  0  0  0  0  0  0  0  0
   23.6940   15.7780    9.8500 C   0  0  0  0  0  0  0  0  0  0  0  0
   23.2470   16.0640   11.1480 C   0  0  0  0  0  0  0  0  0  0  0  0
   24.1000   16.7510   11.9890 C   0  0  0  0  0  0  0  0  0  0  0  0
   25.3580   17.1390   11.5410 C   0  0  0  0  0  0  0  0  0  0  0  0
   25.8220   16.8750   10.2640 C   0  0  0  0  0  0  0  0  0  0  0  0
   26.0340   17.8440   12.6340 C   0  0  0  0  0  0  0  0  0  0  0  0
   27.1210   18.3810   12.5420 O   0  0  0  0  0  0  0  0  0  0  0  0
   25.1920   17.7800   13.7350 N   0  0  0  0  0  0  0  0  0  0  0  0
   25.3830   18.5440   14.9630 C   0  0  1  0  0  0  0  0  0  0  0  0
   26.4220   17.9390   15.9070 C   0  0  0  0  0  0  0  0  0  0  0  0
   26.4980   18.7760   17.1750 C   0  0  0  0  0  0  0  0  0  0  0  0
   26.8160   20.2190   16.8630 C   0  0  0  0  0  0  0  0  0  0  0  0
   27.3280   20.9690   17.6880 O   0  0  0  0  0  0  0  0  0  0  0  0
   26.4260   20.6830   15.6310 N   0  0  0  0  0  0  0  0  0  0  0  0
   25.7180   20.0120   14.6590 C   0  0  0  0  0  0  0  0  0  0  0  0
   25.3040   20.6130   13.6680 O   0  0  0  0  0  0  0  0  0  0  0  0
   23.8960   17.2070   13.3940 C   0  0  0  0  0  0  0  0  0  0  0  0
   26.4130   14.9910    7.7390 N   0  0  0  0  0  0  0  0  0  0  0  0
   26.4750   14.9390    6.4260 C   0  0  0  0  0  0  0  0  0  0  0  0
   27.3440   14.2210    5.5540 C   0  0  0  0  0  0  0  0  0  0  0  0
   25.6040   11.2090    3.8890 C   0  0  0  0  0  0  0  0  0  0  0  0
   24.9640   10.9150    5.0020 N   0  0  0  0  0  0  0  0  0  0  0  0
   24.7464    9.1845    8.6779 H   0  0  0  0  0  0  0  0  0  0  0  0
   23.8606    9.4192    7.1330 H   0  0  0  0  0  0  0  0  0  0  0  0
   25.4708    8.6230    7.1330 H   0  0  0  0  0  0  0  0  0  0  0  0
   24.8267   11.5405    7.7561 H   0  0  0  0  0  0  0  0  0  0  0  0
   26.4437   10.7582    8.0289 H   0  0  0  0  0  0  0  0  0  0  0  0
   28.0612   11.5818    6.0407 H   0  0  0  0  0  0  0  0  0  0  0  0
   26.0489   15.2847    2.5573 H   0  0  0  0  0  0  0  0  0  0  0  0
   24.5534   16.5226    4.0595 H   0  0  0  0  0  0  0  0  0  0  0  0
   23.9550   17.0227    6.7791 H   0  0  0  0  0  0  0  0  0  0  0  0
   23.0309   15.2277    9.1663 H   0  0  0  0  0  0  0  0  0  0  0  0
   22.2481   15.7509   11.4857 H   0  0  0  0  0  0  0  0  0  0  0  0
   26.8222   17.2022    9.9436 H   0  0  0  0  0  0  0  0  0  0  0  0
   24.4202   18.4986   15.4930 H   0  0  0  0  0  0  0  0  0  0  0  0
   26.1304   16.9098   16.1632 H   0  0  0  0  0  0  0  0  0  0  0  0
   27.4052   17.9277   15.4138 H   0  0  0  0  0  0  0  0  0  0  0  0
   25.5299   18.7270   17.6950 H   0  0  0  0  0  0  0  0  0  0  0  0
   27.3017   18.3730   17.8088 H   0  0  0  0  0  0  0  0  0  0  0  0
   26.6960   21.6513   15.4064 H   0  0  0  0  0  0  0  0  0  0  0  0
   23.6497   16.3619   14.0537 H   0  0  0  0  0  0  0  0  0  0  0  0
   23.0618   17.9151   13.5068 H   0  0  0  0  0  0  0  0  0  0  0  0
   28.1303   13.5736    5.9693 H   0  0  0  0  0  0  0  0  0  0  0  0
   25.1409   11.2538    2.8922 H   0  0  0  0  0  0  0  0  0  0  0  0
  1  2  1  0
  2  3  1  0
  3  4  2  0
  4  5  1  0
  5  6  1  0
  6  7  2  0
  6  8  2  0
  6  9  1  0
  9 10  1  0
 10 11  1  0
 11 12  2  0
 12 13  1  0
 13 14  1  0
 14 15  2  0
 15 16  1  0
 16 17  2  0
 17 18  1  0
 18 19  2  0
 19 20  1  0
 20 21  2  0
 20 22  1  0
 22 23  2  0
 22 24  1  0
 24 25  1  0
 25 26  1  0
 26 27  1  0
 27 28  1  0
 28 29  2  0
 28 30  1  0
 30 31  1  0
 31 32  2  0
 24 33  1  0
 15 34  1  0
 34 35  2  0
 35 36  1  0
  5 37  1  0
 37 38  2  0
 38  3  1  0
 36 10  2  0
 35 13  1  0
 21 16  1  0
 31 25  1  0
 33 19  1  0
  1 39  1  0
  1 40  1  0
  1 41  1  0
  2 42  1  0
  2 43  1  0
  4 44  1  0
 11 45  1  0
 12 46  1  0
 14 47  1  0
 17 48  1  0
 18 49  1  0
 21 50  1  0
 25 51  1  1
 26 52  1  0
 26 53  1  0
 27 54  1  0
 27 55  1  0
 30 56  1  0
 33 57  1  0
 33 58  1  0
 36 59  1  0
 37 60  1  0
M  END
>  <meeko>  (219) 
{"is_sidechain": [true], "free_energy": -13.67, "intermolecular_energy": 0.0, "internal_energy": -13.67, "cluster_size": 20, "cluster_id": 1, "rank_in_cluster": 1}

>  <_RMSD_MCS_to_ref>  (219) 
0.6061428141214822

$$$$
ligand
     RDKit          3D

 59 64  0  0  0  0  0  0  0  0999 V2000
   24.8540    9.4020    7.6050 C   0  0  0  0  0  0  0  0  0  0  0  0
   25.5230   10.7550    7.4270 C   0  0  0  0  0  0  0  0  0  0  0  0
   26.9890   10.6320    7.1970 C   0  0  0  0  0  0  0  0  0  0  0  0
   27.8120   11.4070    6.4040 C   0  0  0  0  0  0  0  0  0  0  0  0
   29.0560   10.8760    6.5940 N   0  0  0  0  0  0  0  0  0  0  0  0
   30.4310   11.2500    5.6980 S   0  0  0  0  0  6  0  0  0  0  0  0
   31.5370   10.6920    6.4490 O   0  0  0  0  0  0  0  0  0  0  0  0
   30.1330   10.8150    4.3470 O   0  0  0  0  0  0  0  0  0  0  0  0
   30.5610   12.8720    5.7060 O   0  0  0  0  0  0  0  0  0  0  0  0
   29.6230   13.6990    6.2930 C   0  0  0  0  0  0  0  0  0  0  0  0
   29.2850   13.6980    7.7560 C   0  0  0  0  0  0  0  0  0  0  0  0
   28.4130   14.4650    8.3440 N   0  0  0  0  0  0  0  0  0  0  0  0
   27.7400   15.3500    7.5390 C   0  0  0  0  0  0  0  0  0  0  0  0
   26.7510   16.2880    7.7940 C   0  0  0  0  0  0  0  0  0  0  0  0
   26.1440   16.5650    9.0890 C   0  0  0  0  0  0  0  0  0  0  0  0
   24.8990   15.9740    9.4160 C   0  0  0  0  0  0  0  0  0  0  0  0
   24.2760   16.2230   10.6440 C   0  0  0  0  0  0  0  0  0  0  0  0
   24.9200   17.0720   11.5200 C   0  0  0  0  0  0  0  0  0  0  0  0
   26.1430   17.6670   11.2280 C   0  0  0  0  0  0  0  0  0  0  0  0
   26.7670   17.4230   10.0140 C   0  0  0  0  0  0  0  0  0  0  0  0
   26.5940   18.4980   12.3780 C   0  0  0  0  0  0  0  0  0  0  0  0
   25.4620   18.4200   13.2930 N   0  0  0  0  0  0  0  0  0  0  0  0
   25.5530   18.9290   14.6560 C   0  0  1  0  0  0  0  0  0  0  0  0
   26.6680   18.2850   15.4800 C   0  0  0  0  0  0  0  0  0  0  0  0
   26.6330   18.8410   16.8960 C   0  0  0  0  0  0  0  0  0  0  0  0
   26.7530   20.3470   16.8960 C   0  0  0  0  0  0  0  0  0  0  0  0
   27.1580   20.9700   17.8730 O   0  0  0  0  0  0  0  0  0  0  0  0
   26.3020   21.0010   15.7780 N   0  0  0  0  0  0  0  0  0  0  0  0
   25.6850   20.4600   14.6720 C   0  0  0  0  0  0  0  0  0  0  0  0
   25.1870   21.1950   13.8200 O   0  0  0  0  0  0  0  0  0  0  0  0
   24.5110   17.5080   12.8600 C   0  0  0  0  0  0  0  0  0  0  0  0
   23.5220   17.1090   13.4450 O   0  0  0  0  0  0  0  0  0  0  0  0
   26.4820   16.8600    6.5320 C   0  0  0  0  0  0  0  0  0  0  0  0
   27.2240   16.3480    5.5500 N   0  0  0  0  0  0  0  0  0  0  0  0
   27.9890   15.4170    6.1620 N   0  0  0  0  0  0  0  0  0  0  0  0
   28.9320   14.5870    5.5670 C   0  0  0  0  0  0  0  0  0  0  0  0
   28.9560    9.7860    7.3970 C   0  0  0  0  0  0  0  0  0  0  0  0
   27.7130    9.6230    7.8010 N   0  0  0  0  0  0  0  0  0  0  0  0
   24.7464    9.1845    8.6779 H   0  0  0  0  0  0  0  0  0  0  0  0
   23.8606    9.4192    7.1330 H   0  0  0  0  0  0  0  0  0  0  0  0
   25.4708    8.6230    7.1330 H   0  0  0  0  0  0  0  0  0  0  0  0
   25.0703   11.2630    6.5627 H   0  0  0  0  0  0  0  0  0  0  0  0
   25.3736   11.3299    8.3529 H   0  0  0  0  0  0  0  0  0  0  0  0
   27.5303   12.2573    5.7655 H   0  0  0  0  0  0  0  0  0  0  0  0
   29.8257   12.9810    8.3913 H   0  0  0  0  0  0  0  0  0  0  0  0
   24.4122   15.3060    8.6902 H   0  0  0  0  0  0  0  0  0  0  0  0
   23.3115   15.7604   10.9005 H   0  0  0  0  0  0  0  0  0  0  0  0
   27.7333   17.8925    9.7779 H   0  0  0  0  0  0  0  0  0  0  0  0
   27.5035   18.0816   12.8357 H   0  0  0  0  0  0  0  0  0  0  0  0
   26.8569   19.5281   12.0957 H   0  0  0  0  0  0  0  0  0  0  0  0
   24.6071   18.6453   15.1404 H   0  0  0  0  0  0  0  0  0  0  0  0
   26.5205   17.1953   15.5095 H   0  0  0  0  0  0  0  0  0  0  0  0
   27.6419   18.5091   15.0204 H   0  0  0  0  0  0  0  0  0  0  0  0
   25.6815   18.5571   17.3693 H   0  0  0  0  0  0  0  0  0  0  0  0
   27.4842   18.4243   17.4544 H   0  0  0  0  0  0  0  0  0  0  0  0
   26.4418   22.0214   15.7638 H   0  0  0  0  0  0  0  0  0  0  0  0
   25.7336   17.6506    6.3743 H   0  0  0  0  0  0  0  0  0  0  0  0
   29.1132   14.6607    4.4845 H   0  0  0  0  0  0  0  0  0  0  0  0
   29.7956    9.1306    7.6718 H   0  0  0  0  0  0  0  0  0  0  0  0
  1  2  1  0
  2  3  1  0
  3  4  2  0
  4  5  1  0
  5  6  1  0
  6  7  2  0
  6  8  2  0
  6  9  1  0
  9 10  1  0
 10 11  1  0
 11 12  2  0
 12 13  1  0
 13 14  2  0
 14 15  1  0
 15 16  2  0
 16 17  1  0
 17 18  2  0
 18 19  1  0
 19 20  2  0
 19 21  1  0
 21 22  1  0
 22 23  1  0
 23 24  1  0
 24 25  1  0
 25 26  1  0
 26 27  2  0
 26 28  1  0
 28 29  1  0
 29 30  2  0
 22 31  1  0
 31 32  2  0
 14 33  1  0
 33 34  2  0
 34 35  1  0
 35 36  1  0
  5 37  1  0
 37 38  2  0
 38  3  1  0
 36 10  2  0
 35 13  1  0
 20 15  1  0
 29 23  1  0
 31 18  1  0
  1 39  1  0
  1 40  1  0
  1 41  1  0
  2 42  1  0
  2 43  1  0
  4 44  1  0
 11 45  1  0
 16 46  1  0
 17 47  1  0
 20 48  1  0
 21 49  1  0
 21 50  1  0
 23 51  1  1
 24 52  1  0
 24 53  1  0
 25 54  1  0
 25 55  1  0
 28 56  1  0
 33 57  1  0
 36 58  1  0
 37 59  1  0
M  END
>  <meeko>  (220) 
{"is_sidechain": [true], "free_energy": -13.67, "intermolecular_energy": 0.0, "internal_energy": -13.67, "cluster_size": 20, "cluster_id": 1, "rank_in_cluster": 1}

>  <_RMSD_MCS_to_ref>  (220) 
0.8127625046032132

$$$$
ligand
     RDKit          3D

 56 60  0  0  0  0  0  0  0  0999 V2000
   24.8710    9.6160    7.7820 C   0  0  0  0  0  0  0  0  0  0  0  0
   25.4240   10.9650    7.3490 C   0  0  0  0  0  0  0  0  0  0  0  0
   26.8210   11.1770    7.8150 C   0  0  0  0  0  0  0  0  0  0  0  0
   27.2850   12.0010    8.8220 C   0  0  0  0  0  0  0  0  0  0  0  0
   28.6360   11.7940    8.8240 N   0  0  0  0  0  0  0  0  0  0  0  0
   29.7400   12.5420    9.8550 S   0  0  0  0  0  6  0  0  0  0  0  0
   31.0600   12.1340    9.4080 O   0  0  0  0  0  0  0  0  0  0  0  0
   29.2730   12.1700   11.1800 O   0  0  0  0  0  0  0  0  0  0  0  0
   29.5880   14.1570    9.7320 O   0  0  0  0  0  0  0  0  0  0  0  0
   28.4980   14.6930    9.0980 C   0  0  0  0  0  0  0  0  0  0  0  0
   27.3570   14.8900    9.8590 C   0  0  0  0  0  0  0  0  0  0  0  0
   26.2160   15.4070    9.2370 C   0  0  0  0  0  0  0  0  0  0  0  0
   24.9910   15.6540   10.0010 C   0  0  0  0  0  0  0  0  0  0  0  0
   23.7300   15.2940    9.4850 C   0  0  0  0  0  0  0  0  0  0  0  0
   22.5410   15.5360   10.1990 C   0  0  0  0  0  0  0  0  0  0  0  0
   22.5800   16.1430   11.4530 C   0  0  0  0  0  0  0  0  0  0  0  0
   23.8220   16.4820   11.9520 C   0  0  0  0  0  0  0  0  0  0  0  0
   25.0100   16.2510   11.2580 C   0  0  0  0  0  0  0  0  0  0  0  0
   26.1650   16.7410   12.0690 C   0  0  0  0  0  0  0  0  0  0  0  0
   25.5350   17.1700   13.3100 N   0  0  0  0  0  0  0  0  0  0  0  0
   26.2750   17.9400   14.3050 C   0  0  2  0  0  0  0  0  0  0  0  0
   25.8310   17.6790   15.7440 C   0  0  0  0  0  0  0  0  0  0  0  0
   26.7060   18.4820   16.6940 C   0  0  0  0  0  0  0  0  0  0  0  0
   26.6620   19.9560   16.3660 C   0  0  0  0  0  0  0  0  0  0  0  0
   26.9210   20.8210   17.1980 O   0  0  0  0  0  0  0  0  0  0  0  0
   26.3980   20.2900   15.0600 N   0  0  0  0  0  0  0  0  0  0  0  0
   26.2280   19.4430   13.9890 C   0  0  0  0  0  0  0  0  0  0  0  0
   26.1540   19.8940   12.8460 O   0  0  0  0  0  0  0  0  0  0  0  0
   24.1520   17.1230   13.2300 C   0  0  0  0  0  0  0  0  0  0  0  0
   23.3320   17.5360   14.0260 O   0  0  0  0  0  0  0  0  0  0  0  0
   26.2770   15.6800    7.8670 C   0  0  0  0  0  0  0  0  0  0  0  0
   27.4590   15.4320    7.1900 C   0  0  0  0  0  0  0  0  0  0  0  0
   28.5700   14.9440    7.7800 N   0  0  0  0  0  0  0  0  0  0  0  0
   28.9530   10.8950    7.8580 C   0  0  0  0  0  0  0  0  0  0  0  0
   27.8690   10.4960    7.2250 N   0  0  0  0  0  0  0  0  0  0  0  0
   24.8497    9.5640    8.8806 H   0  0  0  0  0  0  0  0  0  0  0  0
   23.8507    9.4948    7.3893 H   0  0  0  0  0  0  0  0  0  0  0  0
   25.5127    8.8135    7.3893 H   0  0  0  0  0  0  0  0  0  0  0  0
   25.4052   11.0192    6.2505 H   0  0  0  0  0  0  0  0  0  0  0  0
   24.7958   11.7473    7.8000 H   0  0  0  0  0  0  0  0  0  0  0  0
   26.7017   12.6695    9.4723 H   0  0  0  0  0  0  0  0  0  0  0  0
   27.3487   14.6446   10.9312 H   0  0  0  0  0  0  0  0  0  0  0  0
   23.6732   14.8111    8.4983 H   0  0  0  0  0  0  0  0  0  0  0  0
   21.5739   15.2438    9.7639 H   0  0  0  0  0  0  0  0  0  0  0  0
   21.6598   16.3436   12.0214 H   0  0  0  0  0  0  0  0  0  0  0  0
   26.8902   15.9344   12.2520 H   0  0  0  0  0  0  0  0  0  0  0  0
   26.7349   17.5406   11.5731 H   0  0  0  0  0  0  0  0  0  0  0  0
   27.3151   17.5885   14.2369 H   0  0  0  0  0  0  0  0  0  0  0  0
   24.7810   17.9837   15.8655 H   0  0  0  0  0  0  0  0  0  0  0  0
   25.9284   16.6070   15.9708 H   0  0  0  0  0  0  0  0  0  0  0  0
   26.3481   18.3330   17.7234 H   0  0  0  0  0  0  0  0  0  0  0  0
   27.7440   18.1334   16.5890 H   0  0  0  0  0  0  0  0  0  0  0  0
   26.3175   21.2968   14.8579 H   0  0  0  0  0  0  0  0  0  0  0  0
   25.4021   16.0843    7.3369 H   0  0  0  0  0  0  0  0  0  0  0  0
   27.4943   15.6446    6.1113 H   0  0  0  0  0  0  0  0  0  0  0  0
   29.9727   10.5480    7.6348 H   0  0  0  0  0  0  0  0  0  0  0  0
  1  2  1  0
  2  3  1  0
  3  4  2  0
  4  5  1  0
  5  6  1  0
  6  7  2  0
  6  8  2  0
  6  9  1  0
  9 10  1  0
 10 11  2  0
 11 12  1  0
 12 13  1  0
 13 14  2  0
 14 15  1  0
 15 16  2  0
 16 17  1  0
 17 18  2  0
 18 19  1  0
 19 20  1  0
 20 21  1  0
 21 22  1  0
 22 23  1  0
 23 24  1  0
 24 25  2  0
 24 26  1  0
 26 27  1  0
 27 28  2  0
 20 29  1  0
 29 30  2  0
 12 31  2  0
 31 32  1  0
 32 33  2  0
  5 34  1  0
 34 35  2  0
 35  3  1  0
 33 10  1  0
 18 13  1  0
 27 21  1  0
 29 17  1  0
  1 36  1  0
  1 37  1  0
  1 38  1  0
  2 39  1  0
  2 40  1  0
  4 41  1  0
 11 42  1  0
 14 43  1  0
 15 44  1  0
 16 45  1  0
 19 46  1  0
 19 47  1  0
 21 48  1  1
 22 49  1  0
 22 50  1  0
 23 51  1  0
 23 52  1  0
 26 53  1  0
 31 54  1  0
 32 55  1  0
 34 56  1  0
M  END
>  <meeko>  (221) 
{"is_sidechain": [true], "free_energy": -13.67, "intermolecular_energy": 0.0, "internal_energy": -13.67, "cluster_size": 16, "cluster_id": 1, "rank_in_cluster": 1}

>  <_RMSD_MCS_to_ref>  (221) 
1.1168516264730763

$$$$
ligand
     RDKit          3D

 62 67  0  0  0  0  0  0  0  0999 V2000
   24.8710    9.6160    7.7820 C   0  0  0  0  0  0  0  0  0  0  0  0
   25.4240   10.9650    7.3490 C   0  0  0  0  0  0  0  0  0  0  0  0
   26.9120   10.9960    7.3710 C   0  0  0  0  0  0  0  0  0  0  0  0
   27.7520   11.6890    8.2190 C   0  0  0  0  0  0  0  0  0  0  0  0
   29.0080   11.3630    7.7910 N   0  0  0  0  0  0  0  0  0  0  0  0
   30.4340   12.1580    8.2210 S   0  0  0  0  0  6  0  0  0  0  0  0
   31.4870   11.3330    7.6630 O   0  0  0  0  0  0  0  0  0  0  0  0
   30.3280   12.3660    9.6540 O   0  0  0  0  0  0  0  0  0  0  0  0
   30.4440   13.5960    7.4320 O   0  0  0  0  0  0  0  0  0  0  0  0
   29.6470   13.7600    6.3230 C   0  0  0  0  0  0  0  0  0  0  0  0
   30.1240   13.3340    5.0800 C   0  0  0  0  0  0  0  0  0  0  0  0
   29.3350   13.4880    3.9450 C   0  0  0  0  0  0  0  0  0  0  0  0
   28.0630   14.0480    4.0550 C   0  0  0  0  0  0  0  0  0  0  0  0
   27.5630   14.4470    5.3070 C   0  0  0  0  0  0  0  0  0  0  0  0
   26.2890   14.9900    5.4550 C   0  0  0  0  0  0  0  0  0  0  0  0
   25.7520   15.3820    6.6320 N   0  0  0  0  0  0  0  0  0  0  0  0
   26.5070   15.2410    7.7480 C   0  0  0  0  0  0  0  0  0  0  0  0
   25.8710   15.6840    9.0050 C   0  0  0  0  0  0  0  0  0  0  0  0
   24.5300   15.3380    9.3210 C   0  0  0  0  0  0  0  0  0  0  0  0
   23.9200   15.7580   10.5090 C   0  0  0  0  0  0  0  0  0  0  0  0
   24.6750   16.5200   11.3750 C   0  0  0  0  0  0  0  0  0  0  0  0
   25.9940   16.8720   11.1070 C   0  0  0  0  0  0  0  0  0  0  0  0
   26.6010   16.4610    9.9310 C   0  0  0  0  0  0  0  0  0  0  0  0
   26.5350   17.7030   12.2180 C   0  0  0  0  0  0  0  0  0  0  0  0
   25.4450   17.6960   13.1850 N   0  0  0  0  0  0  0  0  0  0  0  0
   25.4590   18.5720   14.3520 C   0  0  2  0  0  0  0  0  0  0  0  0
   26.0890   19.9380   14.0870 C   0  0  0  0  0  0  0  0  0  0  0  0
   25.9970   20.7870   15.3450 C   0  0  0  0  0  0  0  0  0  0  0  0
   26.6530   20.1000   16.5200 C   0  0  0  0  0  0  0  0  0  0  0  0
   27.0640   20.7210   17.4960 O   0  0  0  0  0  0  0  0  0  0  0  0
   26.6910   18.7280   16.4880 N   0  0  0  0  0  0  0  0  0  0  0  0
   26.1350   17.8880   15.5500 C   0  0  0  0  0  0  0  0  0  0  0  0
   26.1040   16.6730   15.7470 O   0  0  0  0  0  0  0  0  0  0  0  0
   24.3050   17.0920   12.6740 C   0  0  0  0  0  0  0  0  0  0  0  0
   23.1930   17.0410   13.1610 O   0  0  0  0  0  0  0  0  0  0  0  0
   27.7900   14.6970    7.6990 C   0  0  0  0  0  0  0  0  0  0  0  0
   28.3480   14.2980    6.4670 C   0  0  0  0  0  0  0  0  0  0  0  0
   28.9090   10.5420    6.7150 C   0  0  0  0  0  0  0  0  0  0  0  0
   27.6470   10.2910    6.4370 N   0  0  0  0  0  0  0  0  0  0  0  0
   24.8497    9.5640    8.8806 H   0  0  0  0  0  0  0  0  0  0  0  0
   23.8507    9.4948    7.3893 H   0  0  0  0  0  0  0  0  0  0  0  0
   25.5127    8.8135    7.3893 H   0  0  0  0  0  0  0  0  0  0  0  0
   25.0804   11.1768    6.3257 H   0  0  0  0  0  0  0  0  0  0  0  0
   25.0599   11.7227    8.0585 H   0  0  0  0  0  0  0  0  0  0  0  0
   27.4735   12.3530    9.0506 H   0  0  0  0  0  0  0  0  0  0  0  0
   31.1217   12.8777    4.9997 H   0  0  0  0  0  0  0  0  0  0  0  0
   29.7137   13.1687    2.9629 H   0  0  0  0  0  0  0  0  0  0  0  0
   27.4452   14.1788    3.1544 H   0  0  0  0  0  0  0  0  0  0  0  0
   25.6759   15.1083    4.5494 H   0  0  0  0  0  0  0  0  0  0  0  0
   23.9551   14.7232    8.6128 H   0  0  0  0  0  0  0  0  0  0  0  0
   22.8789   15.4904   10.7424 H   0  0  0  0  0  0  0  0  0  0  0  0
   27.6444   16.7381    9.7203 H   0  0  0  0  0  0  0  0  0  0  0  0
   27.4447   17.2534   12.6427 H   0  0  0  0  0  0  0  0  0  0  0  0
   26.8310   18.7142   11.9019 H   0  0  0  0  0  0  0  0  0  0  0  0
   24.4029   18.7615   14.5943 H   0  0  0  0  0  0  0  0  0  0  0  0
   27.1451   19.8076   13.8082 H   0  0  0  0  0  0  0  0  0  0  0  0
   25.5538   20.4373   13.2658 H   0  0  0  0  0  0  0  0  0  0  0  0
   26.4999   21.7488   15.1658 H   0  0  0  0  0  0  0  0  0  0  0  0
   24.9342   20.9419   15.5824 H   0  0  0  0  0  0  0  0  0  0  0  0
   27.1974   18.2716   17.2601 H   0  0  0  0  0  0  0  0  0  0  0  0
   28.3698   14.5785    8.6262 H   0  0  0  0  0  0  0  0  0  0  0  0
   29.7653   10.1414    6.1526 H   0  0  0  0  0  0  0  0  0  0  0  0
  1  2  1  0
  2  3  1  0
  3  4  2  0
  4  5  1  0
  5  6  1  0
  6  7  2  0
  6  8  2  0
  6  9  1  0
  9 10  1  0
 10 11  2  0
 11 12  1  0
 12 13  2  0
 13 14  1  0
 14 15  2  0
 15 16  1  0
 16 17  2  0
 17 18  1  0
 18 19  2  0
 19 20  1  0
 20 21  2  0
 21 22  1  0
 22 23  2  0
 22 24  1  0
 24 25  1  0
 25 26  1  0
 26 27  1  0
 27 28  1  0
 28 29  1  0
 29 30  2  0
 29 31  1  0
 31 32  1  0
 32 33  2  0
 25 34  1  0
 34 35  2  0
 17 36  1  0
 36 37  2  0
  5 38  1  0
 38 39  2  0
 39  3  1  0
 37 10  1  0
 37 14  1  0
 23 18  1  0
 32 26  1  0
 34 21  1  0
  1 40  1  0
  1 41  1  0
  1 42  1  0
  2 43  1  0
  2 44  1  0
  4 45  1  0
 11 46  1  0
 12 47  1  0
 13 48  1  0
 15 49  1  0
 19 50  1  0
 20 51  1  0
 23 52  1  0
 24 53  1  0
 24 54  1  0
 26 55  1  1
 27 56  1  0
 27 57  1  0
 28 58  1  0
 28 59  1  0
 31 60  1  0
 36 61  1  0
 38 62  1  0
M  END
>  <meeko>  (222) 
{"is_sidechain": [true], "free_energy": -13.67, "intermolecular_energy": 0.0, "internal_energy": -13.67, "cluster_size": 16, "cluster_id": 1, "rank_in_cluster": 1}

>  <_RMSD_MCS_to_ref>  (222) 
1.6937941681947446

$$$$
ligand
     RDKit          3D

 53 57  0  0  0  0  0  0  0  0999 V2000
   24.8540    9.4020    7.6050 C   0  0  0  0  0  0  0  0  0  0  0  0
   25.5230   10.7550    7.4270 C   0  0  0  0  0  0  0  0  0  0  0  0
   25.1770   11.3870    6.1250 C   0  0  0  0  0  0  0  0  0  0  0  0
   24.5870   12.6130    5.8860 C   0  0  0  0  0  0  0  0  0  0  0  0
   24.5010   12.6820    4.5240 N   0  0  0  0  0  0  0  0  0  0  0  0
   23.8960   13.9850    3.6410 S   0  0  0  0  0  6  0  0  0  0  0  0
   24.4080   13.8260    2.2920 O   0  0  0  0  0  0  0  0  0  0  0  0
   22.4670   13.9310    3.8970 O   0  0  0  0  0  0  0  0  0  0  0  0
   24.4470   15.3770    4.2710 O   0  0  0  0  0  0  0  0  0  0  0  0
   25.0510   15.4070    5.4480 C   0  0  0  0  0  0  0  0  0  0  0  0
   24.4290   15.6810    6.5670 N   0  0  0  0  0  0  0  0  0  0  0  0
   25.3250   15.6650    7.6280 C   0  0  0  0  0  0  0  0  0  0  0  0
   24.8770   15.9560    8.9860 C   0  0  0  0  0  0  0  0  0  0  0  0
   23.7000   15.3820    9.5220 C   0  0  0  0  0  0  0  0  0  0  0  0
   23.2770   15.6800   10.8240 C   0  0  0  0  0  0  0  0  0  0  0  0
   24.0470   16.5620   11.5570 C   0  0  0  0  0  0  0  0  0  0  0  0
   25.2040   17.1420   11.0540 C   0  0  0  0  0  0  0  0  0  0  0  0
   25.6330   16.8450    9.7730 C   0  0  0  0  0  0  0  0  0  0  0  0
   25.8210   18.0330   12.0770 C   0  0  0  0  0  0  0  0  0  0  0  0
   24.8520   17.9820   13.1650 N   0  0  0  0  0  0  0  0  0  0  0  0
   25.1550   18.5500   14.4740 C   0  0  1  0  0  0  0  0  0  0  0  0
   26.3010   17.8460   15.2000 C   0  0  0  0  0  0  0  0  0  0  0  0
   26.4900   18.4760   16.5710 C   0  0  0  0  0  0  0  0  0  0  0  0
   26.7410   19.9620   16.4630 C   0  0  0  0  0  0  0  0  0  0  0  0
   27.3240   20.5930   17.3400 O   0  0  0  0  0  0  0  0  0  0  0  0
   26.2110   20.5970   15.3680 N   0  0  0  0  0  0  0  0  0  0  0  0
   25.4260   20.0590   14.3740 C   0  0  0  0  0  0  0  0  0  0  0  0
   24.9040   20.7910   13.5330 O   0  0  0  0  0  0  0  0  0  0  0  0
   23.8500   17.0530   12.9260 C   0  0  0  0  0  0  0  0  0  0  0  0
   22.9720   16.6730   13.6750 O   0  0  0  0  0  0  0  0  0  0  0  0
   26.6320   15.3900    7.2730 C   0  0  0  0  0  0  0  0  0  0  0  0
   26.7370   15.1450    5.5770 S   0  0  0  0  0  0  0  0  0  0  0  0
   25.0170   11.5480    3.9850 C   0  0  0  0  0  0  0  0  0  0  0  0
   25.4450   10.7380    4.9350 N   0  0  0  0  0  0  0  0  0  0  0  0
   24.7464    9.1845    8.6779 H   0  0  0  0  0  0  0  0  0  0  0  0
   23.8606    9.4192    7.1330 H   0  0  0  0  0  0  0  0  0  0  0  0
   25.4708    8.6230    7.1330 H   0  0  0  0  0  0  0  0  0  0  0  0
   25.1986   11.4202    8.2408 H   0  0  0  0  0  0  0  0  0  0  0  0
   26.6116   10.5984    7.4473 H   0  0  0  0  0  0  0  0  0  0  0  0
   24.2612   13.3618    6.6230 H   0  0  0  0  0  0  0  0  0  0  0  0
   23.1070   14.6900    8.9060 H   0  0  0  0  0  0  0  0  0  0  0  0
   22.3669   15.2290   11.2462 H   0  0  0  0  0  0  0  0  0  0  0  0
   26.5530   17.2976    9.3745 H   0  0  0  0  0  0  0  0  0  0  0  0
   26.8007   17.6501   12.3989 H   0  0  0  0  0  0  0  0  0  0  0  0
   26.0163   19.0518   11.7109 H   0  0  0  0  0  0  0  0  0  0  0  0
   24.2551   18.3844   15.0845 H   0  0  0  0  0  0  0  0  0  0  0  0
   26.0618   16.7786   15.3160 H   0  0  0  0  0  0  0  0  0  0  0  0
   27.2270   17.9509   14.6156 H   0  0  0  0  0  0  0  0  0  0  0  0
   25.5829   18.3085   17.1703 H   0  0  0  0  0  0  0  0  0  0  0  0
   27.3643   18.0103   17.0493 H   0  0  0  0  0  0  0  0  0  0  0  0
   26.4275   21.6001   15.2791 H   0  0  0  0  0  0  0  0  0  0  0  0
   27.4789   15.3361    7.9729 H   0  0  0  0  0  0  0  0  0  0  0  0
   25.0709   11.3342    2.9073 H   0  0  0  0  0  0  0  0  0  0  0  0
  1  2  1  0
  2  3  1  0
  3  4  2  0
  4  5  1  0
  5  6  1  0
  6  7  2  0
  6  8  2  0
  6  9  1  0
  9 10  1  0
 10 11  2  0
 11 12  1  0
 12 13  1  0
 13 14  2  0
 14 15  1  0
 15 16  2  0
 16 17  1  0
 17 18  2  0
 17 19  1  0
 19 20  1  0
 20 21  1  0
 21 22  1  0
 22 23  1  0
 23 24  1  0
 24 25  2  0
 24 26  1  0
 26 27  1  0
 27 28  2  0
 20 29  1  0
 29 30  2  0
 12 31  2  0
 31 32  1  0
  5 33  1  0
 33 34  2  0
 34  3  1  0
 32 10  1  0
 18 13  1  0
 27 21  1  0
 29 16  1  0
  1 35  1  0
  1 36  1  0
  1 37  1  0
  2 38  1  0
  2 39  1  0
  4 40  1  0
 14 41  1  0
 15 42  1  0
 18 43  1  0
 19 44  1  0
 19 45  1  0
 21 46  1  1
 22 47  1  0
 22 48  1  0
 23 49  1  0
 23 50  1  0
 26 51  1  0
 31 52  1  0
 33 53  1  0
M  END
>  <meeko>  (223) 
{"is_sidechain": [true], "free_energy": -13.66, "intermolecular_energy": 0.0, "internal_energy": -13.66, "cluster_size": 16, "cluster_id": 1, "rank_in_cluster": 1}

>  <_RMSD_MCS_to_ref>  (223) 
0.38351082847235857

$$$$
ligand
     RDKit          3D

 62 67  0  0  0  0  0  0  0  0999 V2000
   24.8540    9.4020    7.6050 C   0  0  0  0  0  0  0  0  0  0  0  0
   25.5230   10.7550    7.4270 C   0  0  0  0  0  0  0  0  0  0  0  0
   25.3670   11.2790    6.0420 C   0  0  0  0  0  0  0  0  0  0  0  0
   26.0840   12.2730    5.4050 C   0  0  0  0  0  0  0  0  0  0  0  0
   25.5160   12.3530    4.1660 N   0  0  0  0  0  0  0  0  0  0  0  0
   25.7840   13.5900    3.0430 S   0  0  0  0  0  6  0  0  0  0  0  0
   25.2200   13.1020    1.7990 O   0  0  0  0  0  0  0  0  0  0  0  0
   27.2010   13.8750    3.1640 O   0  0  0  0  0  0  0  0  0  0  0  0
   24.9590   14.9220    3.5320 O   0  0  0  0  0  0  0  0  0  0  0  0
   25.2140   15.4420    4.7770 C   0  0  0  0  0  0  0  0  0  0  0  0
   26.1300   16.4860    4.9040 C   0  0  0  0  0  0  0  0  0  0  0  0
   26.3440   17.0540    6.1520 C   0  0  0  0  0  0  0  0  0  0  0  0
   25.6480   16.5760    7.2660 C   0  0  0  0  0  0  0  0  0  0  0  0
   24.7370   15.4960    7.1700 C   0  0  0  0  0  0  0  0  0  0  0  0
   24.0120   14.9840    8.2800 C   0  0  0  0  0  0  0  0  0  0  0  0
   24.0900   15.5610    9.6290 C   0  0  0  0  0  0  0  0  0  0  0  0
   22.9640   15.5270   10.4880 C   0  0  0  0  0  0  0  0  0  0  0  0
   23.0160   16.0720   11.7740 C   0  0  0  0  0  0  0  0  0  0  0  0
   24.2090   16.6410   12.1730 C   0  0  0  0  0  0  0  0  0  0  0  0
   25.3310   16.6950   11.3500 C   0  0  0  0  0  0  0  0  0  0  0  0
   25.2860   16.1590   10.0740 C   0  0  0  0  0  0  0  0  0  0  0  0
   26.4570   17.3740   12.0600 C   0  0  0  0  0  0  0  0  0  0  0  0
   25.8750   17.6650   13.3640 N   0  0  0  0  0  0  0  0  0  0  0  0
   26.5120   18.5050   14.3740 C   0  0  2  0  0  0  0  0  0  0  0  0
   26.2650   17.9500   15.7780 C   0  0  0  0  0  0  0  0  0  0  0  0
   27.0410   18.7670   16.7980 C   0  0  0  0  0  0  0  0  0  0  0  0
   26.6840   20.2300   16.7130 C   0  0  0  0  0  0  0  0  0  0  0  0
   26.6880   20.9670   17.6940 O   0  0  0  0  0  0  0  0  0  0  0  0
   26.3800   20.7150   15.4660 N   0  0  0  0  0  0  0  0  0  0  0  0
   26.1060   19.9870   14.3310 C   0  0  0  0  0  0  0  0  0  0  0  0
   25.5960   20.5380   13.3570 O   0  0  0  0  0  0  0  0  0  0  0  0
   24.5430   17.2900   13.4440 C   0  0  0  0  0  0  0  0  0  0  0  0
   23.7660   17.4780   14.3620 O   0  0  0  0  0  0  0  0  0  0  0  0
   23.1720   13.8920    8.0560 C   0  0  0  0  0  0  0  0  0  0  0  0
   22.9920   13.2890    6.8630 N   0  0  0  0  0  0  0  0  0  0  0  0
   23.6810   13.8060    5.8250 C   0  0  0  0  0  0  0  0  0  0  0  0
   24.5470   14.9050    5.9010 C   0  0  0  0  0  0  0  0  0  0  0  0
   24.4870   11.4680    4.0890 C   0  0  0  0  0  0  0  0  0  0  0  0
   24.3810   10.7860    5.2110 N   0  0  0  0  0  0  0  0  0  0  0  0
   24.7464    9.1845    8.6779 H   0  0  0  0  0  0  0  0  0  0  0  0
   23.8606    9.4192    7.1330 H   0  0  0  0  0  0  0  0  0  0  0  0
   25.4708    8.6230    7.1330 H   0  0  0  0  0  0  0  0  0  0  0  0
   25.0701   11.4698    8.1298 H   0  0  0  0  0  0  0  0  0  0  0  0
   26.5982   10.6297    7.6227 H   0  0  0  0  0  0  0  0  0  0  0  0
   26.9209   12.8646    5.8044 H   0  0  0  0  0  0  0  0  0  0  0  0
   26.6771   16.8554    4.0241 H   0  0  0  0  0  0  0  0  0  0  0  0
   27.0613   17.8803    6.2646 H   0  0  0  0  0  0  0  0  0  0  0  0
   25.8124   17.0518    8.2441 H   0  0  0  0  0  0  0  0  0  0  0  0
   22.0309   15.0628   10.1362 H   0  0  0  0  0  0  0  0  0  0  0  0
   22.1418   16.0485   12.4412 H   0  0  0  0  0  0  0  0  0  0  0  0
   26.1687   16.1993    9.4189 H   0  0  0  0  0  0  0  0  0  0  0  0
   27.3280   16.7085   12.1526 H   0  0  0  0  0  0  0  0  0  0  0  0
   26.8318   18.2663   11.5371 H   0  0  0  0  0  0  0  0  0  0  0  0
   27.5836   18.4728   14.1278 H   0  0  0  0  0  0  0  0  0  0  0  0
   25.1907   18.0036   16.0082 H   0  0  0  0  0  0  0  0  0  0  0  0
   26.6010   16.9034   15.8193 H   0  0  0  0  0  0  0  0  0  0  0  0
   26.8048   18.3984   17.8071 H   0  0  0  0  0  0  0  0  0  0  0  0
   28.1149   18.6584   16.5860 H   0  0  0  0  0  0  0  0  0  0  0  0
   26.3540   21.7400   15.3685 H   0  0  0  0  0  0  0  0  0  0  0  0
   22.6151   13.4934    8.9168 H   0  0  0  0  0  0  0  0  0  0  0  0
   23.5531   13.3278    4.8427 H   0  0  0  0  0  0  0  0  0  0  0  0
   23.8345   11.3394    3.2128 H   0  0  0  0  0  0  0  0  0  0  0  0
  1  2  1  0
  2  3  1  0
  3  4  2  0
  4  5  1  0
  5  6  1  0
  6  7  2  0
  6  8  2  0
  6  9  1  0
  9 10  1  0
 10 11  2  0
 11 12  1  0
 12 13  2  0
 13 14  1  0
 14 15  2  0
 15 16  1  0
 16 17  2  0
 17 18  1  0
 18 19  2  0
 19 20  1  0
 20 21  2  0
 20 22  1  0
 22 23  1  0
 23 24  1  0
 24 25  1  0
 25 26  1  0
 26 27  1  0
 27 28  2  0
 27 29  1  0
 29 30  1  0
 30 31  2  0
 23 32  1  0
 32 33  2  0
 15 34  1  0
 34 35  2  0
 35 36  1  0
 36 37  2  0
  5 38  1  0
 38 39  2  0
 39  3  1  0
 37 10  1  0
 37 14  1  0
 21 16  1  0
 30 24  1  0
 32 19  1  0
  1 40  1  0
  1 41  1  0
  1 42  1  0
  2 43  1  0
  2 44  1  0
  4 45  1  0
 11 46  1  0
 12 47  1  0
 13 48  1  0
 17 49  1  0
 18 50  1  0
 21 51  1  0
 22 52  1  0
 22 53  1  0
 24 54  1  6
 25 55  1  0
 25 56  1  0
 26 57  1  0
 26 58  1  0
 29 59  1  0
 34 60  1  0
 36 61  1  0
 38 62  1  0
M  END
>  <meeko>  (224) 
{"is_sidechain": [true], "free_energy": -13.66, "intermolecular_energy": 0.0, "internal_energy": -13.66, "cluster_size": 20, "cluster_id": 1, "rank_in_cluster": 1}

>  <_RMSD_MCS_to_ref>  (224) 
0.9509894846947566

$$$$
ligand
     RDKit          3D

 62 67  0  0  0  0  0  0  0  0999 V2000
   24.8540    9.4020    7.6050 C   0  0  0  0  0  0  0  0  0  0  0  0
   25.5230   10.7550    7.4270 C   0  0  0  0  0  0  0  0  0  0  0  0
   24.7380   11.6580    6.5430 C   0  0  0  0  0  0  0  0  0  0  0  0
   24.9390   11.9600    5.2090 C   0  0  0  0  0  0  0  0  0  0  0  0
   23.9170   12.8110    4.9010 N   0  0  0  0  0  0  0  0  0  0  0  0
   23.7630   13.6870    3.4760 S   0  0  0  0  0  6  0  0  0  0  0  0
   22.3400   13.8450    3.2580 O   0  0  0  0  0  0  0  0  0  0  0  0
   24.6330   13.0410    2.5120 O   0  0  0  0  0  0  0  0  0  0  0  0
   24.4560   15.2670    3.8790 C   0  0  0  0  0  0  0  0  0  0  0  0
   24.6460   16.2200    2.8850 C   0  0  0  0  0  0  0  0  0  0  0  0
   25.1930   17.4600    3.2280 C   0  0  0  0  0  0  0  0  0  0  0  0
   25.5670   17.7680    4.5320 C   0  0  0  0  0  0  0  0  0  0  0  0
   26.0700   18.9800    4.7780 N   0  0  0  0  0  0  0  0  0  0  0  0
   26.4110   19.2420    6.0430 C   0  0  0  0  0  0  0  0  0  0  0  0
   26.3050   18.4050    7.0780 N   0  0  0  0  0  0  0  0  0  0  0  0
   25.8140   17.1800    6.8240 C   0  0  0  0  0  0  0  0  0  0  0  0
   25.7150   16.2320    7.8800 N   0  0  0  0  0  0  0  0  0  0  0  0
   25.2410   16.4330    9.1980 C   0  0  0  0  0  0  0  0  0  0  0  0
   24.0730   15.8040    9.6880 C   0  0  0  0  0  0  0  0  0  0  0  0
   23.6430   15.9560   11.0160 C   0  0  0  0  0  0  0  0  0  0  0  0
   24.4160   16.7210   11.8640 C   0  0  0  0  0  0  0  0  0  0  0  0
   25.5860   17.3090   11.3950 C   0  0  0  0  0  0  0  0  0  0  0  0
   26.0260   17.1780   10.0910 C   0  0  0  0  0  0  0  0  0  0  0  0
   26.2050   18.0410   12.5050 C   0  0  0  0  0  0  0  0  0  0  0  0
   27.2030   18.7270   12.4060 O   0  0  0  0  0  0  0  0  0  0  0  0
   25.4270   17.8000   13.6280 N   0  0  0  0  0  0  0  0  0  0  0  0
   25.5620   18.5180   14.8910 C   0  0  1  0  0  0  0  0  0  0  0  0
   26.6600   17.9660   15.8000 C   0  0  0  0  0  0  0  0  0  0  0  0
   26.6710   18.7430   17.1070 C   0  0  0  0  0  0  0  0  0  0  0  0
   26.8530   20.2230   16.8630 C   0  0  0  0  0  0  0  0  0  0  0  0
   27.3000   20.9770   17.7230 O   0  0  0  0  0  0  0  0  0  0  0  0
   26.4150   20.7070   15.6560 N   0  0  0  0  0  0  0  0  0  0  0  0
   25.7600   20.0230   14.6570 C   0  0  0  0  0  0  0  0  0  0  0  0
   25.2840   20.6300   13.6990 O   0  0  0  0  0  0  0  0  0  0  0  0
   24.2100   17.0690   13.2990 C   0  0  0  0  0  0  0  0  0  0  0  0
   25.4020   16.7970    5.5310 C   0  0  0  0  0  0  0  0  0  0  0  0
   24.8390   15.5390    5.1940 C   0  0  0  0  0  0  0  0  0  0  0  0
   23.1780   13.0420    6.0160 C   0  0  0  0  0  0  0  0  0  0  0  0
   23.6450   12.3470    7.0310 N   0  0  0  0  0  0  0  0  0  0  0  0
   24.7464    9.1845    8.6779 H   0  0  0  0  0  0  0  0  0  0  0  0
   23.8606    9.4192    7.1330 H   0  0  0  0  0  0  0  0  0  0  0  0
   25.4708    8.6230    7.1330 H   0  0  0  0  0  0  0  0  0  0  0  0
   25.6298   11.2299    8.4134 H   0  0  0  0  0  0  0  0  0  0  0  0
   26.5024   10.5880    6.9550 H   0  0  0  0  0  0  0  0  0  0  0  0
   25.7393   11.5975    4.5472 H   0  0  0  0  0  0  0  0  0  0  0  0
   24.3698   16.0015    1.8429 H   0  0  0  0  0  0  0  0  0  0  0  0
   25.3321   18.2164    2.4415 H   0  0  0  0  0  0  0  0  0  0  0  0
   26.8178   20.2425    6.2517 H   0  0  0  0  0  0  0  0  0  0  0  0
   26.0286   15.2767    7.6565 H   0  0  0  0  0  0  0  0  0  0  0  0
   23.4818   15.1749    9.0063 H   0  0  0  0  0  0  0  0  0  0  0  0
   22.7170   15.4790   11.3695 H   0  0  0  0  0  0  0  0  0  0  0  0
   26.9661   17.6452    9.7624 H   0  0  0  0  0  0  0  0  0  0  0  0
   24.6127   18.3587   15.4234 H   0  0  0  0  0  0  0  0  0  0  0  0
   26.4658   16.9031   16.0064 H   0  0  0  0  0  0  0  0  0  0  0  0
   27.6356   18.0695   15.3026 H   0  0  0  0  0  0  0  0  0  0  0  0
   25.7164   18.5804   17.6288 H   0  0  0  0  0  0  0  0  0  0  0  0
   27.5133   18.3851   17.7172 H   0  0  0  0  0  0  0  0  0  0  0  0
   26.5988   21.7042   15.4754 H   0  0  0  0  0  0  0  0  0  0  0  0
   24.1113   16.1641   13.9166 H   0  0  0  0  0  0  0  0  0  0  0  0
   23.2911   17.6456   13.4813 H   0  0  0  0  0  0  0  0  0  0  0  0
   24.7035   14.7740    5.9727 H   0  0  0  0  0  0  0  0  0  0  0  0
   22.3100   13.7160    6.0643 H   0  0  0  0  0  0  0  0  0  0  0  0
  1  2  1  0
  2  3  1  0
  3  4  2  0
  4  5  1  0
  5  6  1  0
  6  7  2  0
  6  8  2  0
  6  9  1  0
  9 10  2  0
 10 11  1  0
 11 12  2  0
 12 13  1  0
 13 14  2  0
 14 15  1  0
 15 16  2  0
 16 17  1  0
 17 18  1  0
 18 19  2  0
 19 20  1  0
 20 21  2  0
 21 22  1  0
 22 23  2  0
 22 24  1  0
 24 25  2  0
 24 26  1  0
 26 27  1  0
 27 28  1  0
 28 29  1  0
 29 30  1  0
 30 31  2  0
 30 32  1  0
 32 33  1  0
 33 34  2  0
 26 35  1  0
 16 36  1  0
 36 37  2  0
  5 38  1  0
 38 39  2  0
 39  3  1  0
 37  9  1  0
 36 12  1  0
 23 18  1  0
 33 27  1  0
 35 21  1  0
  1 40  1  0
  1 41  1  0
  1 42  1  0
  2 43  1  0
  2 44  1  0
  4 45  1  0
 10 46  1  0
 11 47  1  0
 14 48  1  0
 17 49  1  0
 19 50  1  0
 20 51  1  0
 23 52  1  0
 27 53  1  1
 28 54  1  0
 28 55  1  0
 29 56  1  0
 29 57  1  0
 32 58  1  0
 35 59  1  0
 35 60  1  0
 37 61  1  0
 38 62  1  0
M  END
>  <meeko>  (225) 
{"is_sidechain": [true], "free_energy": -13.66, "intermolecular_energy": 0.0, "internal_energy": -13.66, "cluster_size": 18, "cluster_id": 1, "rank_in_cluster": 1}

>  <_RMSD_MCS_to_ref>  (225) 
0.6595840440088813

$$$$
ligand
     RDKit          3D

 56 60  0  0  0  0  0  0  0  0999 V2000
   24.8710    9.6160    7.7820 C   0  0  0  0  0  0  0  0  0  0  0  0
   25.4240   10.9650    7.3490 C   0  0  0  0  0  0  0  0  0  0  0  0
   26.7840   11.2170    7.8980 C   0  0  0  0  0  0  0  0  0  0  0  0
   27.1440   11.9830    8.9890 C   0  0  0  0  0  0  0  0  0  0  0  0
   28.4910   11.8100    9.0880 N   0  0  0  0  0  0  0  0  0  0  0  0
   29.5240   12.5490   10.1950 S   0  0  0  0  0  6  0  0  0  0  0  0
   30.8770   12.2470    9.7590 O   0  0  0  0  0  0  0  0  0  0  0  0
   29.0440   12.0680   11.4790 O   0  0  0  0  0  0  0  0  0  0  0  0
   29.2870   14.1590   10.1670 O   0  0  0  0  0  0  0  0  0  0  0  0
   28.1360   14.6860    9.6360 C   0  0  0  0  0  0  0  0  0  0  0  0
   28.1820   15.0600    8.3050 C   0  0  0  0  0  0  0  0  0  0  0  0
   27.0530   15.6500    7.7520 C   0  0  0  0  0  0  0  0  0  0  0  0
   25.9310   15.8510    8.5510 C   0  0  0  0  0  0  0  0  0  0  0  0
   25.9640   15.4470    9.8840 C   0  0  0  0  0  0  0  0  0  0  0  0
   24.8180   15.6260   10.7870 C   0  0  0  0  0  0  0  0  0  0  0  0
   23.5340   15.1370   10.4550 C   0  0  0  0  0  0  0  0  0  0  0  0
   22.4280   15.2850   11.3170 C   0  0  0  0  0  0  0  0  0  0  0  0
   22.5710   15.9250   12.5460 C   0  0  0  0  0  0  0  0  0  0  0  0
   23.8260   16.4030   12.8620 C   0  0  0  0  0  0  0  0  0  0  0  0
   24.9290   16.2780   12.0130 C   0  0  0  0  0  0  0  0  0  0  0  0
   26.1160   16.9310   12.6460 C   0  0  0  0  0  0  0  0  0  0  0  0
   25.6180   17.3090   13.9610 N   0  0  0  0  0  0  0  0  0  0  0  0
   26.3970   18.1660   14.8460 C   0  0  2  0  0  0  0  0  0  0  0  0
   26.1150   17.9210   16.3280 C   0  0  0  0  0  0  0  0  0  0  0  0
   27.0190   18.8110   17.1670 C   0  0  0  0  0  0  0  0  0  0  0  0
   26.8410   20.2670   16.8090 C   0  0  0  0  0  0  0  0  0  0  0  0
   27.0860   21.1710   17.6030 O   0  0  0  0  0  0  0  0  0  0  0  0
   26.4590   20.5430   15.5200 N   0  0  0  0  0  0  0  0  0  0  0  0
   26.2020   19.6510   14.5020 C   0  0  0  0  0  0  0  0  0  0  0  0
   25.9250   20.0640   13.3760 O   0  0  0  0  0  0  0  0  0  0  0  0
   24.2550   17.1010   14.0800 C   0  0  0  0  0  0  0  0  0  0  0  0
   23.5170   17.4260   14.9900 O   0  0  0  0  0  0  0  0  0  0  0  0
   27.0610   14.8590   10.4260 N   0  0  0  0  0  0  0  0  0  0  0  0
   28.9250   11.0830    8.0260 C   0  0  0  0  0  0  0  0  0  0  0  0
   27.9060   10.6700    7.3020 N   0  0  0  0  0  0  0  0  0  0  0  0
   24.8497    9.5640    8.8806 H   0  0  0  0  0  0  0  0  0  0  0  0
   23.8507    9.4948    7.3893 H   0  0  0  0  0  0  0  0  0  0  0  0
   25.5127    8.8135    7.3893 H   0  0  0  0  0  0  0  0  0  0  0  0
   25.4749   10.9910    6.2505 H   0  0  0  0  0  0  0  0  0  0  0  0
   24.7530   11.7455    7.7370 H   0  0  0  0  0  0  0  0  0  0  0  0
   26.4919   12.5933    9.6311 H   0  0  0  0  0  0  0  0  0  0  0  0
   29.0870   14.8948    7.7019 H   0  0  0  0  0  0  0  0  0  0  0  0
   27.0454   15.9549    6.6951 H   0  0  0  0  0  0  0  0  0  0  0  0
   25.0289   16.3233    8.1349 H   0  0  0  0  0  0  0  0  0  0  0  0
   23.3929   14.6240    9.4922 H   0  0  0  0  0  0  0  0  0  0  0  0
   21.4453   14.8923   11.0169 H   0  0  0  0  0  0  0  0  0  0  0  0
   21.7210   16.0440   13.2340 H   0  0  0  0  0  0  0  0  0  0  0  0
   26.9573   16.2272   12.7289 H   0  0  0  0  0  0  0  0  0  0  0  0
   26.5028   17.7827   12.0672 H   0  0  0  0  0  0  0  0  0  0  0  0
   27.4490   17.8948   14.6736 H   0  0  0  0  0  0  0  0  0  0  0  0
   25.0629   18.1571   16.5455 H   0  0  0  0  0  0  0  0  0  0  0  0
   26.3102   16.8659   16.5701 H   0  0  0  0  0  0  0  0  0  0  0  0
   26.7733   18.6708   18.2300 H   0  0  0  0  0  0  0  0  0  0  0  0
   28.0638   18.5300   16.9686 H   0  0  0  0  0  0  0  0  0  0  0  0
   26.3512   21.5399   15.2847 H   0  0  0  0  0  0  0  0  0  0  0  0
   29.9805   10.8692    7.8021 H   0  0  0  0  0  0  0  0  0  0  0  0
  1  2  1  0
  2  3  1  0
  3  4  2  0
  4  5  1  0
  5  6  1  0
  6  7  2  0
  6  8  2  0
  6  9  1  0
  9 10  1  0
 10 11  2  0
 11 12  1  0
 12 13  2  0
 13 14  1  0
 14 15  1  0
 15 16  2  0
 16 17  1  0
 17 18  2  0
 18 19  1  0
 19 20  2  0
 20 21  1  0
 21 22  1  0
 22 23  1  0
 23 24  1  0
 24 25  1  0
 25 26  1  0
 26 27  2  0
 26 28  1  0
 28 29  1  0
 29 30  2  0
 22 31  1  0
 31 32  2  0
 14 33  2  0
  5 34  1  0
 34 35  2  0
 35  3  1  0
 33 10  1  0
 20 15  1  0
 29 23  1  0
 31 19  1  0
  1 36  1  0
  1 37  1  0
  1 38  1  0
  2 39  1  0
  2 40  1  0
  4 41  1  0
 11 42  1  0
 12 43  1  0
 13 44  1  0
 16 45  1  0
 17 46  1  0
 18 47  1  0
 21 48  1  0
 21 49  1  0
 23 50  1  1
 24 51  1  0
 24 52  1  0
 25 53  1  0
 25 54  1  0
 28 55  1  0
 34 56  1  0
M  END
>  <meeko>  (226) 
{"is_sidechain": [true], "free_energy": -13.64, "intermolecular_energy": 0.0, "internal_energy": -13.64, "cluster_size": 8, "cluster_id": 1, "rank_in_cluster": 1}

>  <_RMSD_MCS_to_ref>  (226) 
1.4791633896677312

$$$$
ligand
     RDKit          3D

 60 65  0  0  0  0  0  0  0  0999 V2000
   24.8710    9.6160    7.7820 C   0  0  0  0  0  0  0  0  0  0  0  0
   25.4240   10.9650    7.3490 C   0  0  0  0  0  0  0  0  0  0  0  0
   26.6560   11.3350    8.0970 C   0  0  0  0  0  0  0  0  0  0  0  0
   27.9640   11.3640    7.6570 C   0  0  0  0  0  0  0  0  0  0  0  0
   28.6800   11.7410    8.7570 N   0  0  0  0  0  0  0  0  0  0  0  0
   30.3060   12.1760    8.7730 S   0  0  0  0  0  6  0  0  0  0  0  0
   31.0110   11.0280    8.2370 O   0  0  0  0  0  0  0  0  0  0  0  0
   30.5620   12.6510   10.1230 O   0  0  0  0  0  0  0  0  0  0  0  0
   30.4590   13.4250    7.7270 O   0  0  0  0  0  0  0  0  0  0  0  0
   29.4250   14.0380    7.1450 C   0  0  0  0  0  0  0  0  0  0  0  0
   29.1830   14.2530    5.8060 C   0  0  0  0  0  0  0  0  0  0  0  0
   27.9430   14.9380    5.6820 C   0  0  0  0  0  0  0  0  0  0  0  0
   27.1960   15.4040    4.5940 C   0  0  0  0  0  0  0  0  0  0  0  0
   25.9920   16.0220    4.8910 C   0  0  0  0  0  0  0  0  0  0  0  0
   25.5090   16.2060    6.1380 N   0  0  0  0  0  0  0  0  0  0  0  0
   26.2330   15.7870    7.2130 C   0  0  0  0  0  0  0  0  0  0  0  0
   25.6690   16.0230    8.5450 C   0  0  0  0  0  0  0  0  0  0  0  0
   24.4260   15.4580    8.9350 C   0  0  0  0  0  0  0  0  0  0  0  0
   23.8800   15.6880   10.2020 C   0  0  0  0  0  0  0  0  0  0  0  0
   24.6060   16.4760   11.0710 C   0  0  0  0  0  0  0  0  0  0  0  0
   25.8340   17.0340   10.7300 C   0  0  0  0  0  0  0  0  0  0  0  0
   26.3760   16.8140    9.4760 C   0  0  0  0  0  0  0  0  0  0  0  0
   26.3620   17.8380   11.8690 C   0  0  0  0  0  0  0  0  0  0  0  0
   25.3770   17.5950   12.9160 N   0  0  0  0  0  0  0  0  0  0  0  0
   25.3840   18.3650   14.1540 C   0  0  2  0  0  0  0  0  0  0  0  0
   26.0590   19.7300   14.0270 C   0  0  0  0  0  0  0  0  0  0  0  0
   25.9560   20.4690   15.3520 C   0  0  0  0  0  0  0  0  0  0  0  0
   26.5580   19.6610   16.4790 C   0  0  0  0  0  0  0  0  0  0  0  0
   26.9640   20.1830   17.5130 O   0  0  0  0  0  0  0  0  0  0  0  0
   26.5550   18.2970   16.3300 N   0  0  0  0  0  0  0  0  0  0  0  0
   26.0050   17.5600   15.3070 C   0  0  0  0  0  0  0  0  0  0  0  0
   25.9380   16.3350   15.3930 O   0  0  0  0  0  0  0  0  0  0  0  0
   24.2870   16.8790   12.4450 C   0  0  0  0  0  0  0  0  0  0  0  0
   23.2430   16.6270   13.0140 O   0  0  0  0  0  0  0  0  0  0  0  0
   27.4490   15.1350    6.9710 C   0  0  0  0  0  0  0  0  0  0  0  0
   28.3500   14.5510    7.8350 N   0  0  0  0  0  0  0  0  0  0  0  0
   27.8220   12.0020    9.7770 C   0  0  0  0  0  0  0  0  0  0  0  0
   26.5840   11.7400    9.4160 N   0  0  0  0  0  0  0  0  0  0  0  0
   24.8497    9.5640    8.8806 H   0  0  0  0  0  0  0  0  0  0  0  0
   23.8507    9.4948    7.3893 H   0  0  0  0  0  0  0  0  0  0  0  0
   25.5127    8.8135    7.3893 H   0  0  0  0  0  0  0  0  0  0  0  0
   25.6608   10.9225    6.2756 H   0  0  0  0  0  0  0  0  0  0  0  0
   24.6592   11.7267    7.5610 H   0  0  0  0  0  0  0  0  0  0  0  0
   28.3431   11.1355    6.6500 H   0  0  0  0  0  0  0  0  0  0  0  0
   29.8365   13.9474    4.9756 H   0  0  0  0  0  0  0  0  0  0  0  0
   27.5462   15.2859    3.5580 H   0  0  0  0  0  0  0  0  0  0  0  0
   25.3859   16.3893    4.0497 H   0  0  0  0  0  0  0  0  0  0  0  0
   23.8786   14.8233    8.2226 H   0  0  0  0  0  0  0  0  0  0  0  0
   22.9106   15.2578   10.4938 H   0  0  0  0  0  0  0  0  0  0  0  0
   27.3488   17.2515    9.2072 H   0  0  0  0  0  0  0  0  0  0  0  0
   27.3592   17.4875   12.1734 H   0  0  0  0  0  0  0  0  0  0  0  0
   26.4902   18.9038   11.6289 H   0  0  0  0  0  0  0  0  0  0  0  0
   24.3267   18.5643   14.3831 H   0  0  0  0  0  0  0  0  0  0  0  0
   27.1184   19.5927   13.7647 H   0  0  0  0  0  0  0  0  0  0  0  0
   25.5604   20.3149   13.2401 H   0  0  0  0  0  0  0  0  0  0  0  0
   26.4919   21.4262   15.2712 H   0  0  0  0  0  0  0  0  0  0  0  0
   24.8919   20.6368   15.5745 H   0  0  0  0  0  0  0  0  0  0  0  0
   27.0213   17.7596   17.0747 H   0  0  0  0  0  0  0  0  0  0  0  0
   28.2347   14.5047    8.8575 H   0  0  0  0  0  0  0  0  0  0  0  0
   28.1202   12.3795   10.7662 H   0  0  0  0  0  0  0  0  0  0  0  0
  1  2  1  0
  2  3  1  0
  3  4  2  0
  4  5  1  0
  5  6  1  0
  6  7  2  0
  6  8  2  0
  6  9  1  0
  9 10  1  0
 10 11  2  0
 11 12  1  0
 12 13  2  0
 13 14  1  0
 14 15  2  0
 15 16  1  0
 16 17  1  0
 17 18  2  0
 18 19  1  0
 19 20  2  0
 20 21  1  0
 21 22  2  0
 21 23  1  0
 23 24  1  0
 24 25  1  0
 25 26  1  0
 26 27  1  0
 27 28  1  0
 28 29  2  0
 28 30  1  0
 30 31  1  0
 31 32  2  0
 24 33  1  0
 33 34  2  0
 16 35  2  0
 35 36  1  0
  5 37  1  0
 37 38  2  0
 38  3  1  0
 36 10  1  0
 35 12  1  0
 22 17  1  0
 31 25  1  0
 33 20  1  0
  1 39  1  0
  1 40  1  0
  1 41  1  0
  2 42  1  0
  2 43  1  0
  4 44  1  0
 11 45  1  0
 13 46  1  0
 14 47  1  0
 18 48  1  0
 19 49  1  0
 22 50  1  0
 23 51  1  0
 23 52  1  0
 25 53  1  1
 26 54  1  0
 26 55  1  0
 27 56  1  0
 27 57  1  0
 30 58  1  0
 36 59  1  0
 37 60  1  0
M  END
>  <meeko>  (227) 
{"is_sidechain": [true], "free_energy": -13.64, "intermolecular_energy": 0.0, "internal_energy": -13.64, "cluster_size": 20, "cluster_id": 1, "rank_in_cluster": 1}

>  <_RMSD_MCS_to_ref>  (227) 
1.6811649626312544

$$$$
ligand
     RDKit          3D

 54 58  0  0  0  0  0  0  0  0999 V2000
   24.8540    9.4020    7.6050 C   0  0  0  0  0  0  0  0  0  0  0  0
   25.5230   10.7550    7.4270 C   0  0  0  0  0  0  0  0  0  0  0  0
   26.9990   10.6900    7.6140 C   0  0  0  0  0  0  0  0  0  0  0  0
   27.8890   11.7280    7.8110 C   0  0  0  0  0  0  0  0  0  0  0  0
   29.1090   11.1200    7.8800 N   0  0  0  0  0  0  0  0  0  0  0  0
   30.5740   11.8570    8.2990 S   0  0  0  0  0  6  0  0  0  0  0  0
   30.8390   12.7990    7.2280 O   0  0  0  0  0  0  0  0  0  0  0  0
   31.4630   10.7380    8.5520 O   0  0  0  0  0  0  0  0  0  0  0  0
   30.3820   12.6760    9.7020 O   0  0  0  0  0  0  0  0  0  0  0  0
   29.5330   13.6960    9.8010 C   0  0  0  0  0  0  0  0  0  0  0  0
   28.1930   13.6210   10.1140 C   0  0  0  0  0  0  0  0  0  0  0  0
   27.5310   14.8860   10.0370 C   0  0  0  0  0  0  0  0  0  0  0  0
   26.1000   15.1240   10.1300 C   0  0  0  0  0  0  0  0  0  0  0  0
   25.1910   14.5100    9.2560 C   0  0  0  0  0  0  0  0  0  0  0  0
   23.8050   14.7480    9.3670 C   0  0  0  0  0  0  0  0  0  0  0  0
   23.3040   15.6000   10.3550 C   0  0  0  0  0  0  0  0  0  0  0  0
   24.2170   16.1950   11.2040 C   0  0  0  0  0  0  0  0  0  0  0  0
   25.5890   15.9720   11.1050 C   0  0  0  0  0  0  0  0  0  0  0  0
   26.3010   16.7250   12.1800 C   0  0  0  0  0  0  0  0  0  0  0  0
   25.2220   17.4310   12.8490 N   0  0  0  0  0  0  0  0  0  0  0  0
   25.4170   18.1640   14.0980 C   0  0  1  0  0  0  0  0  0  0  0  0
   26.5760   17.5640   14.8950 C   0  0  0  0  0  0  0  0  0  0  0  0
   26.7410   18.3040   16.2110 C   0  0  0  0  0  0  0  0  0  0  0  0
   26.9530   19.7800   15.9810 C   0  0  0  0  0  0  0  0  0  0  0  0
   27.6330   20.4690   16.7350 O   0  0  0  0  0  0  0  0  0  0  0  0
   26.2990   20.3310   14.9100 N   0  0  0  0  0  0  0  0  0  0  0  0
   25.6320   19.6770   13.8990 C   0  0  0  0  0  0  0  0  0  0  0  0
   25.1990   20.3120   12.9380 O   0  0  0  0  0  0  0  0  0  0  0  0
   23.9800   17.0990   12.3390 C   0  0  0  0  0  0  0  0  0  0  0  0
   22.8870   17.4410   12.7450 O   0  0  0  0  0  0  0  0  0  0  0  0
   28.4270   15.9010    9.7740 C   0  0  0  0  0  0  0  0  0  0  0  0
   30.0270   15.3190    9.5880 S   0  0  0  0  0  0  0  0  0  0  0  0
   28.9410    9.7750    7.7690 C   0  0  0  0  0  0  0  0  0  0  0  0
   27.6650    9.4780    7.6120 N   0  0  0  0  0  0  0  0  0  0  0  0
   24.7464    9.1845    8.6779 H   0  0  0  0  0  0  0  0  0  0  0  0
   23.8606    9.4192    7.1330 H   0  0  0  0  0  0  0  0  0  0  0  0
   25.4708    8.6230    7.1330 H   0  0  0  0  0  0  0  0  0  0  0  0
   25.3118   11.1222    6.4118 H   0  0  0  0  0  0  0  0  0  0  0  0
   25.1182   11.4317    8.1940 H   0  0  0  0  0  0  0  0  0  0  0  0
   27.6651   12.8018    7.8936 H   0  0  0  0  0  0  0  0  0  0  0  0
   27.6858   12.6859   10.3938 H   0  0  0  0  0  0  0  0  0  0  0  0
   25.5641   13.8334    8.4730 H   0  0  0  0  0  0  0  0  0  0  0  0
   23.1111   14.2577    8.6684 H   0  0  0  0  0  0  0  0  0  0  0  0
   22.2249   15.7894   10.4528 H   0  0  0  0  0  0  0  0  0  0  0  0
   26.8137   16.0394   12.8707 H   0  0  0  0  0  0  0  0  0  0  0  0
   27.0859   17.3933   11.7962 H   0  0  0  0  0  0  0  0  0  0  0  0
   24.4806   18.0564   14.6651 H   0  0  0  0  0  0  0  0  0  0  0  0
   26.3678   16.5030   15.0975 H   0  0  0  0  0  0  0  0  0  0  0  0
   27.5027   17.6579   14.3099 H   0  0  0  0  0  0  0  0  0  0  0  0
   25.8356   18.1615   16.8193 H   0  0  0  0  0  0  0  0  0  0  0  0
   27.6229   17.9010   16.7304 H   0  0  0  0  0  0  0  0  0  0  0  0
   26.3077   21.3595   14.8549 H   0  0  0  0  0  0  0  0  0  0  0  0
   28.1465   16.9615    9.6931 H   0  0  0  0  0  0  0  0  0  0  0  0
   29.7559    9.0370    7.8051 H   0  0  0  0  0  0  0  0  0  0  0  0
  1  2  1  0
  2  3  1  0
  3  4  2  0
  4  5  1  0
  5  6  1  0
  6  7  2  0
  6  8  2  0
  6  9  1  0
  9 10  1  0
 10 11  2  0
 11 12  1  0
 12 13  1  0
 13 14  2  0
 14 15  1  0
 15 16  2  0
 16 17  1  0
 17 18  2  0
 18 19  1  0
 19 20  1  0
 20 21  1  0
 21 22  1  0
 22 23  1  0
 23 24  1  0
 24 25  2  0
 24 26  1  0
 26 27  1  0
 27 28  2  0
 20 29  1  0
 29 30  2  0
 12 31  2  0
 31 32  1  0
  5 33  1  0
 33 34  2  0
 34  3  1  0
 32 10  1  0
 18 13  1  0
 27 21  1  0
 29 17  1  0
  1 35  1  0
  1 36  1  0
  1 37  1  0
  2 38  1  0
  2 39  1  0
  4 40  1  0
 11 41  1  0
 14 42  1  0
 15 43  1  0
 16 44  1  0
 19 45  1  0
 19 46  1  0
 21 47  1  1
 22 48  1  0
 22 49  1  0
 23 50  1  0
 23 51  1  0
 26 52  1  0
 31 53  1  0
 33 54  1  0
M  END
>  <meeko>  (228) 
{"is_sidechain": [true], "free_energy": -13.63, "intermolecular_energy": 0.0, "internal_energy": -13.63, "cluster_size": 15, "cluster_id": 1, "rank_in_cluster": 1}

>  <_RMSD_MCS_to_ref>  (228) 
0.7586995452746761

$$$$
ligand
     RDKit          3D

 58 62  0  0  0  0  0  0  0  0999 V2000
   24.8540    9.4020    7.6050 C   0  0  0  0  0  0  0  0  0  0  0  0
   25.5230   10.7550    7.4270 C   0  0  0  0  0  0  0  0  0  0  0  0
   25.4550   11.2340    6.0190 C   0  0  0  0  0  0  0  0  0  0  0  0
   26.3170   12.0760    5.3450 C   0  0  0  0  0  0  0  0  0  0  0  0
   25.7870   12.1620    4.0900 N   0  0  0  0  0  0  0  0  0  0  0  0
   26.2720   13.2300    2.8870 S   0  0  0  0  0  6  0  0  0  0  0  0
   25.0720   13.5580    2.1410 O   0  0  0  0  0  0  0  0  0  0  0  0
   27.4380   12.6360    2.2650 O   0  0  0  0  0  0  0  0  0  0  0  0
   26.7780   14.6630    3.7670 C   0  0  0  0  0  0  0  0  0  0  0  0
   27.8420   15.4070    3.2900 C   0  0  0  0  0  0  0  0  0  0  0  0
   28.3000   16.5130    3.9180 N   0  0  0  0  0  0  0  0  0  0  0  0
   27.6520   16.8960    5.0490 C   0  0  0  0  0  0  0  0  0  0  0  0
   26.5470   16.2310    5.5720 C   0  0  0  0  0  0  0  0  0  0  0  0
   25.9190   16.7560    6.8090 C   0  0  0  0  0  0  0  0  0  0  0  0
   25.6350   17.9460    6.8410 O   0  0  0  0  0  0  0  0  0  0  0  0
   25.6910   15.8220    7.8040 N   0  0  0  0  0  0  0  0  0  0  0  0
   25.1490   16.0570    9.0870 C   0  0  0  0  0  0  0  0  0  0  0  0
   23.9490   15.4710    9.5510 C   0  0  0  0  0  0  0  0  0  0  0  0
   23.4520   15.7380   10.8360 C   0  0  0  0  0  0  0  0  0  0  0  0
   24.1760   16.6010   11.6280 C   0  0  0  0  0  0  0  0  0  0  0  0
   25.3440   17.1820   11.1810 C   0  0  0  0  0  0  0  0  0  0  0  0
   25.8580   16.9340    9.9210 C   0  0  0  0  0  0  0  0  0  0  0  0
   25.8550   18.0270   12.2560 C   0  0  0  0  0  0  0  0  0  0  0  0
   26.8890   18.6640   12.1900 O   0  0  0  0  0  0  0  0  0  0  0  0
   24.9540   17.9460   13.2830 N   0  0  0  0  0  0  0  0  0  0  0  0
   25.1980   18.5360   14.5920 C   0  0  1  0  0  0  0  0  0  0  0  0
   26.2870   17.8380   15.4030 C   0  0  0  0  0  0  0  0  0  0  0  0
   26.4180   18.5240   16.7550 C   0  0  0  0  0  0  0  0  0  0  0  0
   26.7020   20.0000   16.5970 C   0  0  0  0  0  0  0  0  0  0  0  0
   27.3140   20.6440   17.4440 O   0  0  0  0  0  0  0  0  0  0  0  0
   26.1890   20.6090   15.4790 N   0  0  0  0  0  0  0  0  0  0  0  0
   25.5360   20.0200   14.4190 C   0  0  0  0  0  0  0  0  0  0  0  0
   25.2070   20.6870   13.4400 O   0  0  0  0  0  0  0  0  0  0  0  0
   23.9430   17.0710   12.9930 C   0  0  0  0  0  0  0  0  0  0  0  0
   23.0220   16.6990   13.6940 O   0  0  0  0  0  0  0  0  0  0  0  0
   26.1060   15.0770    4.9190 C   0  0  0  0  0  0  0  0  0  0  0  0
   24.6410   11.4350    4.0390 C   0  0  0  0  0  0  0  0  0  0  0  0
   24.4150   10.8510    5.1960 N   0  0  0  0  0  0  0  0  0  0  0  0
   24.7464    9.1845    8.6779 H   0  0  0  0  0  0  0  0  0  0  0  0
   23.8606    9.4192    7.1330 H   0  0  0  0  0  0  0  0  0  0  0  0
   25.4708    8.6230    7.1330 H   0  0  0  0  0  0  0  0  0  0  0  0
   25.0196   11.4873    8.0752 H   0  0  0  0  0  0  0  0  0  0  0  0
   26.5840   10.6456    7.6961 H   0  0  0  0  0  0  0  0  0  0  0  0
   27.2233   12.5655    5.7310 H   0  0  0  0  0  0  0  0  0  0  0  0
   28.3359   15.0854    2.3612 H   0  0  0  0  0  0  0  0  0  0  0  0
   28.0224   17.7837    5.5826 H   0  0  0  0  0  0  0  0  0  0  0  0
   25.9444   14.8480    7.5850 H   0  0  0  0  0  0  0  0  0  0  0  0
   23.3923   14.7905    8.8899 H   0  0  0  0  0  0  0  0  0  0  0  0
   22.5209   15.2762   11.1963 H   0  0  0  0  0  0  0  0  0  0  0  0
   26.7915   17.4086    9.5843 H   0  0  0  0  0  0  0  0  0  0  0  0
   24.2724   18.4074   15.1723 H   0  0  0  0  0  0  0  0  0  0  0  0
   26.0167   16.7820   15.5504 H   0  0  0  0  0  0  0  0  0  0  0  0
   27.2443   17.8951   14.8642 H   0  0  0  0  0  0  0  0  0  0  0  0
   25.4787   18.3977   17.3134 H   0  0  0  0  0  0  0  0  0  0  0  0
   27.2579   18.0651   17.2971 H   0  0  0  0  0  0  0  0  0  0  0  0
   26.3067   21.6309   15.4263 H   0  0  0  0  0  0  0  0  0  0  0  0
   25.2478   14.5068    5.3042 H   0  0  0  0  0  0  0  0  0  0  0  0
   23.9929   11.3469    3.1546 H   0  0  0  0  0  0  0  0  0  0  0  0
  1  2  1  0
  2  3  1  0
  3  4  2  0
  4  5  1  0
  5  6  1  0
  6  7  2  0
  6  8  2  0
  6  9  1  0
  9 10  2  0
 10 11  1  0
 11 12  2  0
 12 13  1  0
 13 14  1  0
 14 15  2  0
 14 16  1  0
 16 17  1  0
 17 18  2  0
 18 19  1  0
 19 20  2  0
 20 21  1  0
 21 22  2  0
 21 23  1  0
 23 24  2  0
 23 25  1  0
 25 26  1  0
 26 27  1  0
 27 28  1  0
 28 29  1  0
 29 30  2  0
 29 31  1  0
 31 32  1  0
 32 33  2  0
 25 34  1  0
 34 35  2  0
 13 36  2  0
  5 37  1  0
 37 38  2  0
 38  3  1  0
 36  9  1  0
 22 17  1  0
 32 26  1  0
 34 20  1  0
  1 39  1  0
  1 40  1  0
  1 41  1  0
  2 42  1  0
  2 43  1  0
  4 44  1  0
 10 45  1  0
 12 46  1  0
 16 47  1  0
 18 48  1  0
 19 49  1  0
 22 50  1  0
 26 51  1  1
 27 52  1  0
 27 53  1  0
 28 54  1  0
 28 55  1  0
 31 56  1  0
 36 57  1  0
 37 58  1  0
M  END
>  <meeko>  (229) 
{"is_sidechain": [true], "free_energy": -13.63, "intermolecular_energy": 0.0, "internal_energy": -13.63, "cluster_size": 20, "cluster_id": 1, "rank_in_cluster": 1}

>  <_RMSD_MCS_to_ref>  (229) 
0.4288303860502418

$$$$
ligand
     RDKit          3D

 53 57  0  0  0  0  0  0  0  0999 V2000
   24.8710    9.6160    7.7820 C   0  0  0  0  0  0  0  0  0  0  0  0
   25.4240   10.9650    7.3490 C   0  0  0  0  0  0  0  0  0  0  0  0
   26.5920   11.4120    8.1610 C   0  0  0  0  0  0  0  0  0  0  0  0
   27.6400   12.2400    7.8040 C   0  0  0  0  0  0  0  0  0  0  0  0
   28.4310   12.2750    8.9140 N   0  0  0  0  0  0  0  0  0  0  0  0
   29.8030   13.2280    9.1170 S   0  0  0  0  0  6  0  0  0  0  0  0
   30.5420   13.1130    7.8730 O   0  0  0  0  0  0  0  0  0  0  0  0
   30.3690   12.7390   10.3610 O   0  0  0  0  0  0  0  0  0  0  0  0
   29.3400   14.7630    9.3550 O   0  0  0  0  0  0  0  0  0  0  0  0
   28.0740   15.1380    9.2740 C   0  0  0  0  0  0  0  0  0  0  0  0
   27.2540   15.2080   10.2980 N   0  0  0  0  0  0  0  0  0  0  0  0
   25.9880   15.5990    9.8620 C   0  0  0  0  0  0  0  0  0  0  0  0
   24.8420   15.6980   10.7670 C   0  0  0  0  0  0  0  0  0  0  0  0
   23.5750   15.1870   10.4060 C   0  0  0  0  0  0  0  0  0  0  0  0
   22.4530   15.3000   11.2510 C   0  0  0  0  0  0  0  0  0  0  0  0
   22.5640   15.9260   12.4870 C   0  0  0  0  0  0  0  0  0  0  0  0
   23.8100   16.4050   12.8410 C   0  0  0  0  0  0  0  0  0  0  0  0
   24.9370   16.2950   12.0180 C   0  0  0  0  0  0  0  0  0  0  0  0
   26.1030   16.9210   12.7090 C   0  0  0  0  0  0  0  0  0  0  0  0
   25.5570   17.3090   14.0020 N   0  0  0  0  0  0  0  0  0  0  0  0
   26.3200   18.1590   14.9100 C   0  0  2  0  0  0  0  0  0  0  0  0
   25.9840   17.9580   16.3860 C   0  0  0  0  0  0  0  0  0  0  0  0
   26.9200   18.8090   17.2310 C   0  0  0  0  0  0  0  0  0  0  0  0
   26.8350   20.2660   16.8410 C   0  0  0  0  0  0  0  0  0  0  0  0
   27.0990   21.1710   17.6280 O   0  0  0  0  0  0  0  0  0  0  0  0
   26.5040   20.5380   15.5390 N   0  0  0  0  0  0  0  0  0  0  0  0
   26.1910   19.6440   14.5390 C   0  0  0  0  0  0  0  0  0  0  0  0
   25.9020   20.0520   13.4140 O   0  0  0  0  0  0  0  0  0  0  0  0
   24.1940   17.1020   14.0720 C   0  0  0  0  0  0  0  0  0  0  0  0
   23.4170   17.4250   14.9500 O   0  0  0  0  0  0  0  0  0  0  0  0
   25.9210   15.9010    8.5130 C   0  0  0  0  0  0  0  0  0  0  0  0
   27.4320   15.6210    7.7650 S   0  0  0  0  0  0  0  0  0  0  0  0
   27.8110   11.6140    9.9250 C   0  0  0  0  0  0  0  0  0  0  0  0
   26.7160   11.0280    9.4850 N   0  0  0  0  0  0  0  0  0  0  0  0
   24.8497    9.5640    8.8806 H   0  0  0  0  0  0  0  0  0  0  0  0
   23.8507    9.4948    7.3893 H   0  0  0  0  0  0  0  0  0  0  0  0
   25.5127    8.8135    7.3893 H   0  0  0  0  0  0  0  0  0  0  0  0
   25.7374   10.8925    6.2971 H   0  0  0  0  0  0  0  0  0  0  0  0
   24.6242   11.7063    7.4932 H   0  0  0  0  0  0  0  0  0  0  0  0
   27.7992   12.7531    6.8441 H   0  0  0  0  0  0  0  0  0  0  0  0
   23.4609   14.6848    9.4340 H   0  0  0  0  0  0  0  0  0  0  0  0
   21.4837   14.8904   10.9306 H   0  0  0  0  0  0  0  0  0  0  0  0
   21.6966   16.0352   13.1546 H   0  0  0  0  0  0  0  0  0  0  0  0
   26.9243   16.1991   12.8286 H   0  0  0  0  0  0  0  0  0  0  0  0
   26.5309   17.7669   12.1509 H   0  0  0  0  0  0  0  0  0  0  0  0
   27.3647   17.8399   14.7802 H   0  0  0  0  0  0  0  0  0  0  0  0
   24.9429   18.2611   16.5712 H   0  0  0  0  0  0  0  0  0  0  0  0
   26.1059   16.8977   16.6523 H   0  0  0  0  0  0  0  0  0  0  0  0
   26.6422   18.7043   18.2902 H   0  0  0  0  0  0  0  0  0  0  0  0
   27.9509   18.4633   17.0644 H   0  0  0  0  0  0  0  0  0  0  0  0
   26.4873   21.5337   15.2760 H   0  0  0  0  0  0  0  0  0  0  0  0
   25.0227   16.2690    7.9957 H   0  0  0  0  0  0  0  0  0  0  0  0
   28.1715   11.5735   10.9635 H   0  0  0  0  0  0  0  0  0  0  0  0
  1  2  1  0
  2  3  1  0
  3  4  2  0
  4  5  1  0
  5  6  1  0
  6  7  2  0
  6  8  2  0
  6  9  1  0
  9 10  1  0
 10 11  2  0
 11 12  1  0
 12 13  1  0
 13 14  2  0
 14 15  1  0
 15 16  2  0
 16 17  1  0
 17 18  2  0
 18 19  1  0
 19 20  1  0
 20 21  1  0
 21 22  1  0
 22 23  1  0
 23 24  1  0
 24 25  2  0
 24 26  1  0
 26 27  1  0
 27 28  2  0
 20 29  1  0
 29 30  2  0
 12 31  2  0
 31 32  1  0
  5 33  1  0
 33 34  2  0
 34  3  1  0
 32 10  1  0
 18 13  1  0
 27 21  1  0
 29 17  1  0
  1 35  1  0
  1 36  1  0
  1 37  1  0
  2 38  1  0
  2 39  1  0
  4 40  1  0
 14 41  1  0
 15 42  1  0
 16 43  1  0
 19 44  1  0
 19 45  1  0
 21 46  1  1
 22 47  1  0
 22 48  1  0
 23 49  1  0
 23 50  1  0
 26 51  1  0
 31 52  1  0
 33 53  1  0
M  END
>  <meeko>  (230) 
{"is_sidechain": [true], "free_energy": -13.63, "intermolecular_energy": 0.0, "internal_energy": -13.63, "cluster_size": 14, "cluster_id": 1, "rank_in_cluster": 1}

>  <_RMSD_MCS_to_ref>  (230) 
1.4466682795689936

$$$$
ligand
     RDKit          3D

 56 60  0  0  0  0  0  0  0  0999 V2000
   24.8710    9.6170    7.7820 C   0  0  0  0  0  0  0  0  0  0  0  0
   25.4240   10.9640    7.3490 C   0  0  0  0  0  0  0  0  0  0  0  0
   26.8320   11.1610    7.7910 C   0  0  0  0  0  0  0  0  0  0  0  0
   27.3050   11.6200    9.0040 C   0  0  0  0  0  0  0  0  0  0  0  0
   28.6640   11.6010    8.8680 N   0  0  0  0  0  0  0  0  0  0  0  0
   29.7710   12.3880    9.8750 S   0  0  0  0  0  6  0  0  0  0  0  0
   31.0640   11.9020    9.4310 O   0  0  0  0  0  0  0  0  0  0  0  0
   29.2970   12.1440   11.2250 O   0  0  0  0  0  0  0  0  0  0  0  0
   29.6870   13.9930    9.5430 O   0  0  0  0  0  0  0  0  0  0  0  0
   28.5520   14.4770    8.9520 C   0  0  0  0  0  0  0  0  0  0  0  0
   28.5410   14.7950    7.6040 C   0  0  0  0  0  0  0  0  0  0  0  0
   27.3650   15.2960    7.0830 C   0  0  0  0  0  0  0  0  0  0  0  0
   26.2440   15.4900    7.8140 N   0  0  0  0  0  0  0  0  0  0  0  0
   26.2660   15.1630    9.1310 C   0  0  0  0  0  0  0  0  0  0  0  0
   25.0300   15.4300    9.8880 C   0  0  0  0  0  0  0  0  0  0  0  0
   23.7570   15.0820    9.3770 C   0  0  0  0  0  0  0  0  0  0  0  0
   22.5650   15.3520   10.0790 C   0  0  0  0  0  0  0  0  0  0  0  0
   22.6030   15.9790   11.3210 C   0  0  0  0  0  0  0  0  0  0  0  0
   23.8470   16.3020   11.8240 C   0  0  0  0  0  0  0  0  0  0  0  0
   25.0400   16.0350   11.1460 C   0  0  0  0  0  0  0  0  0  0  0  0
   26.1920   16.5280   11.9600 C   0  0  0  0  0  0  0  0  0  0  0  0
   25.5500   17.0220   13.1730 N   0  0  0  0  0  0  0  0  0  0  0  0
   26.2930   17.7980   14.1580 C   0  0  2  0  0  0  0  0  0  0  0  0
   25.8060   17.6000   15.5930 C   0  0  0  0  0  0  0  0  0  0  0  0
   26.6840   18.4030   16.5390 C   0  0  0  0  0  0  0  0  0  0  0  0
   26.7000   19.8660   16.1630 C   0  0  0  0  0  0  0  0  0  0  0  0
   26.9720   20.7470   16.9740 O   0  0  0  0  0  0  0  0  0  0  0  0
   26.4760   20.1660   14.8430 N   0  0  0  0  0  0  0  0  0  0  0  0
   26.3020   19.2920   13.7940 C   0  0  0  0  0  0  0  0  0  0  0  0
   26.2670   19.7100   12.6380 O   0  0  0  0  0  0  0  0  0  0  0  0
   24.1700   16.9760   13.0860 C   0  0  0  0  0  0  0  0  0  0  0  0
   23.3470   17.4150   13.8650 O   0  0  0  0  0  0  0  0  0  0  0  0
   27.4040   14.6240    9.7240 C   0  0  0  0  0  0  0  0  0  0  0  0
   28.9760   11.1860    7.6110 C   0  0  0  0  0  0  0  0  0  0  0  0
   27.8830   10.9100    6.9310 N   0  0  0  0  0  0  0  0  0  0  0  0
   24.8498    9.5653    8.8806 H   0  0  0  0  0  0  0  0  0  0  0  0
   23.8505    9.4962    7.3895 H   0  0  0  0  0  0  0  0  0  0  0  0
   25.5122    8.8140    7.3895 H   0  0  0  0  0  0  0  0  0  0  0  0
   25.3849   11.0270    6.2515 H   0  0  0  0  0  0  0  0  0  0  0  0
   24.8099   11.7478    7.8165 H   0  0  0  0  0  0  0  0  0  0  0  0
   26.7196   11.9309    9.8819 H   0  0  0  0  0  0  0  0  0  0  0  0
   29.4322   14.6542    6.9748 H   0  0  0  0  0  0  0  0  0  0  0  0
   27.3382   15.5517    6.0135 H   0  0  0  0  0  0  0  0  0  0  0  0
   23.6957   14.5836    8.3983 H   0  0  0  0  0  0  0  0  0  0  0  0
   21.5972   15.0650    9.6419 H   0  0  0  0  0  0  0  0  0  0  0  0
   21.6819   16.2071   11.8773 H   0  0  0  0  0  0  0  0  0  0  0  0
   26.8928   15.7114   12.1882 H   0  0  0  0  0  0  0  0  0  0  0  0
   26.7908   17.2932   11.4443 H   0  0  0  0  0  0  0  0  0  0  0  0
   27.3220   17.4107   14.1249 H   0  0  0  0  0  0  0  0  0  0  0  0
   24.7646   17.9438   15.6779 H   0  0  0  0  0  0  0  0  0  0  0  0
   25.8615   16.5334   15.8562 H   0  0  0  0  0  0  0  0  0  0  0  0
   26.2954   18.3003   17.5629 H   0  0  0  0  0  0  0  0  0  0  0  0
   27.7115   18.0158   16.4725 H   0  0  0  0  0  0  0  0  0  0  0  0
   26.4328   21.1680   14.6083 H   0  0  0  0  0  0  0  0  0  0  0  0
   27.3959   14.3205   10.7813 H   0  0  0  0  0  0  0  0  0  0  0  0
   29.9990   11.0938    7.2173 H   0  0  0  0  0  0  0  0  0  0  0  0
  1  2  1  0
  2  3  1  0
  3  4  2  0
  4  5  1  0
  5  6  1  0
  6  7  2  0
  6  8  2  0
  6  9  1  0
  9 10  1  0
 10 11  2  0
 11 12  1  0
 12 13  2  0
 13 14  1  0
 14 15  1  0
 15 16  2  0
 16 17  1  0
 17 18  2  0
 18 19  1  0
 19 20  2  0
 20 21  1  0
 21 22  1  0
 22 23  1  0
 23 24  1  0
 24 25  1  0
 25 26  1  0
 26 27  2  0
 26 28  1  0
 28 29  1  0
 29 30  2  0
 22 31  1  0
 31 32  2  0
 14 33  2  0
  5 34  1  0
 34 35  2  0
 35  3  1  0
 33 10  1  0
 20 15  1  0
 29 23  1  0
 31 19  1  0
  1 36  1  0
  1 37  1  0
  1 38  1  0
  2 39  1  0
  2 40  1  0
  4 41  1  0
 11 42  1  0
 12 43  1  0
 16 44  1  0
 17 45  1  0
 18 46  1  0
 21 47  1  0
 21 48  1  0
 23 49  1  1
 24 50  1  0
 24 51  1  0
 25 52  1  0
 25 53  1  0
 28 54  1  0
 33 55  1  0
 34 56  1  0
M  END
>  <meeko>  (231) 
{"is_sidechain": [true], "free_energy": -13.62, "intermolecular_energy": 0.0, "internal_energy": -13.62, "cluster_size": 15, "cluster_id": 1, "rank_in_cluster": 1}

>  <_RMSD_MCS_to_ref>  (231) 
1.153708176080743

$$$$
ligand
     RDKit          3D

 61 66  0  0  0  0  0  0  0  0999 V2000
   24.8710    9.6160    7.7820 C   0  0  0  0  0  0  0  0  0  0  0  0
   25.4240   10.9650    7.3490 C   0  0  0  0  0  0  0  0  0  0  0  0
   26.8060   11.1940    7.8520 C   0  0  0  0  0  0  0  0  0  0  0  0
   27.2280   11.9870    8.9020 C   0  0  0  0  0  0  0  0  0  0  0  0
   28.5800   11.8030    8.9350 N   0  0  0  0  0  0  0  0  0  0  0  0
   29.6510   12.5190   10.0230 S   0  0  0  0  0  6  0  0  0  0  0  0
   29.2640   12.0200   11.3290 O   0  0  0  0  0  0  0  0  0  0  0  0
   30.9550   12.2230    9.4610 O   0  0  0  0  0  0  0  0  0  0  0  0
   29.4440   14.1410    9.9860 O   0  0  0  0  0  0  0  0  0  0  0  0
   28.2560   14.7160    9.6110 C   0  0  0  0  0  0  0  0  0  0  0  0
   27.1860   14.9060   10.4810 C   0  0  0  0  0  0  0  0  0  0  0  0
   25.9740   15.4720   10.0280 C   0  0  0  0  0  0  0  0  0  0  0  0
   24.8140   15.6100   10.9090 C   0  0  0  0  0  0  0  0  0  0  0  0
   23.5330   15.1710   10.5260 C   0  0  0  0  0  0  0  0  0  0  0  0
   22.4150   15.3230   11.3730 C   0  0  0  0  0  0  0  0  0  0  0  0
   22.5490   15.9220   12.6250 C   0  0  0  0  0  0  0  0  0  0  0  0
   23.8110   16.3420   12.9940 C   0  0  0  0  0  0  0  0  0  0  0  0
   24.9250   16.1930   12.1680 C   0  0  0  0  0  0  0  0  0  0  0  0
   26.1250   16.7660   12.8410 C   0  0  0  0  0  0  0  0  0  0  0  0
   25.6170   17.1710   14.1410 N   0  0  0  0  0  0  0  0  0  0  0  0
   26.4170   18.0410   14.9970 C   0  0  2  0  0  0  0  0  0  0  0  0
   26.1090   17.8990   16.4860 C   0  0  0  0  0  0  0  0  0  0  0  0
   27.0710   18.7700   17.2800 C   0  0  0  0  0  0  0  0  0  0  0  0
   26.9980   20.2130   16.8370 C   0  0  0  0  0  0  0  0  0  0  0  0
   27.3040   21.1420   17.5800 O   0  0  0  0  0  0  0  0  0  0  0  0
   26.6330   20.4410   15.5340 N   0  0  0  0  0  0  0  0  0  0  0  0
   26.3020   19.5140   14.5710 C   0  0  0  0  0  0  0  0  0  0  0  0
   26.0160   19.8810   13.4310 O   0  0  0  0  0  0  0  0  0  0  0  0
   24.2420   17.0190   14.2260 C   0  0  0  0  0  0  0  0  0  0  0  0
   23.4920   17.3790   15.1120 O   0  0  0  0  0  0  0  0  0  0  0  0
   25.8810   15.8790    8.6730 C   0  0  0  0  0  0  0  0  0  0  0  0
   24.8520   16.4560    7.8690 C   0  0  0  0  0  0  0  0  0  0  0  0
   25.3540   16.6410    6.6020 C   0  0  0  0  0  0  0  0  0  0  0  0
   26.6480   16.1980    6.5980 N   0  0  0  0  0  0  0  0  0  0  0  0
   26.9900   15.7130    7.8410 C   0  0  0  0  0  0  0  0  0  0  0  0
   28.1890   15.1430    8.2830 C   0  0  0  0  0  0  0  0  0  0  0  0
   28.9490   11.0110    7.8960 C   0  0  0  0  0  0  0  0  0  0  0  0
   27.8860   10.5830    7.2440 N   0  0  0  0  0  0  0  0  0  0  0  0
   24.8497    9.5640    8.8806 H   0  0  0  0  0  0  0  0  0  0  0  0
   23.8507    9.4948    7.3893 H   0  0  0  0  0  0  0  0  0  0  0  0
   25.5127    8.8135    7.3893 H   0  0  0  0  0  0  0  0  0  0  0  0
   25.4356   11.0068    6.2499 H   0  0  0  0  0  0  0  0  0  0  0  0
   24.7766   11.7470    7.7726 H   0  0  0  0  0  0  0  0  0  0  0  0
   26.6152   12.6208    9.5599 H   0  0  0  0  0  0  0  0  0  0  0  0
   27.2859   14.6112   11.5360 H   0  0  0  0  0  0  0  0  0  0  0  0
   23.4001   14.6977    9.5420 H   0  0  0  0  0  0  0  0  0  0  0  0
   21.4285   14.9657   11.0427 H   0  0  0  0  0  0  0  0  0  0  0  0
   21.6841   16.0545   13.2916 H   0  0  0  0  0  0  0  0  0  0  0  0
   26.9170   16.0098   12.9454 H   0  0  0  0  0  0  0  0  0  0  0  0
   26.5794   17.5951   12.2788 H   0  0  0  0  0  0  0  0  0  0  0  0
   27.4543   17.7029   14.8569 H   0  0  0  0  0  0  0  0  0  0  0  0
   25.0752   18.2207   16.6804 H   0  0  0  0  0  0  0  0  0  0  0  0
   26.2251   16.8480   16.7893 H   0  0  0  0  0  0  0  0  0  0  0  0
   26.8119   18.7092   18.3473 H   0  0  0  0  0  0  0  0  0  0  0  0
   28.0940   18.4048   17.1067 H   0  0  0  0  0  0  0  0  0  0  0  0
   26.6029   21.4276   15.2399 H   0  0  0  0  0  0  0  0  0  0  0  0
   23.8352   16.7085    8.2043 H   0  0  0  0  0  0  0  0  0  0  0  0
   24.8121   17.0685    5.7455 H   0  0  0  0  0  0  0  0  0  0  0  0
   27.2766   16.2234    5.7824 H   0  0  0  0  0  0  0  0  0  0  0  0
   29.0501   15.0348    7.6071 H   0  0  0  0  0  0  0  0  0  0  0  0
   29.9881   10.7616    7.6350 H   0  0  0  0  0  0  0  0  0  0  0  0
  1  2  1  0
  2  3  1  0
  3  4  2  0
  4  5  1  0
  5  6  1  0
  6  7  2  0
  6  8  2  0
  6  9  1  0
  9 10  1  0
 10 11  2  0
 11 12  1  0
 12 13  1  0
 13 14  2  0
 14 15  1  0
 15 16  2  0
 16 17  1  0
 17 18  2  0
 18 19  1  0
 19 20  1  0
 20 21  1  0
 21 22  1  0
 22 23  1  0
 23 24  1  0
 24 25  2  0
 24 26  1  0
 26 27  1  0
 27 28  2  0
 20 29  1  0
 29 30  2  0
 12 31  2  0
 31 32  1  0
 32 33  2  0
 33 34  1  0
 34 35  1  0
 35 36  2  0
  5 37  1  0
 37 38  2  0
 38  3  1  0
 36 10  1  0
 18 13  1  0
 27 21  1  0
 35 31  1  0
 29 17  1  0
  1 39  1  0
  1 40  1  0
  1 41  1  0
  2 42  1  0
  2 43  1  0
  4 44  1  0
 11 45  1  0
 14 46  1  0
 15 47  1  0
 16 48  1  0
 19 49  1  0
 19 50  1  0
 21 51  1  1
 22 52  1  0
 22 53  1  0
 23 54  1  0
 23 55  1  0
 26 56  1  0
 32 57  1  0
 33 58  1  0
 34 59  1  0
 36 60  1  0
 37 61  1  0
M  END
>  <meeko>  (232) 
{"is_sidechain": [true], "free_energy": -13.62, "intermolecular_energy": 0.0, "internal_energy": -13.62, "cluster_size": 16, "cluster_id": 1, "rank_in_cluster": 1}

>  <_RMSD_MCS_to_ref>  (232) 
1.56073657824332

$$$$
ligand
     RDKit          3D

 56 60  0  0  0  0  0  0  0  0999 V2000
   24.8540    9.4020    7.6050 C   0  0  0  0  0  0  0  0  0  0  0  0
   25.5230   10.7550    7.4270 C   0  0  0  0  0  0  0  0  0  0  0  0
   25.1840   11.3840    6.1210 C   0  0  0  0  0  0  0  0  0  0  0  0
   24.2180   12.3290    5.8360 C   0  0  0  0  0  0  0  0  0  0  0  0
   24.3250   12.5210    4.4880 N   0  0  0  0  0  0  0  0  0  0  0  0
   23.5720   13.7440    3.6050 S   0  0  0  0  0  6  0  0  0  0  0  0
   24.1260   13.6310    2.2700 O   0  0  0  0  0  0  0  0  0  0  0  0
   22.1540   13.5630    3.8580 O   0  0  0  0  0  0  0  0  0  0  0  0
   24.0630   15.1470    4.2760 O   0  0  0  0  0  0  0  0  0  0  0  0
   25.0140   15.2000    5.2640 C   0  0  0  0  0  0  0  0  0  0  0  0
   26.3710   14.9710    5.0900 C   0  0  0  0  0  0  0  0  0  0  0  0
   27.1860   15.0600    6.2040 C   0  0  0  0  0  0  0  0  0  0  0  0
   26.7400   15.3580    7.4420 N   0  0  0  0  0  0  0  0  0  0  0  0
   25.4140   15.5970    7.6070 C   0  0  0  0  0  0  0  0  0  0  0  0
   24.9900   15.9260    8.9870 C   0  0  0  0  0  0  0  0  0  0  0  0
   23.7260   15.5250    9.4990 C   0  0  0  0  0  0  0  0  0  0  0  0
   23.3220   15.8320   10.8040 C   0  0  0  0  0  0  0  0  0  0  0  0
   24.2020   16.5470   11.5880 C   0  0  0  0  0  0  0  0  0  0  0  0
   25.4420   16.9710   11.1260 C   0  0  0  0  0  0  0  0  0  0  0  0
   25.8440   16.6700    9.8340 C   0  0  0  0  0  0  0  0  0  0  0  0
   26.1470   17.7480   12.1860 C   0  0  0  0  0  0  0  0  0  0  0  0
   25.2380   17.6330   13.3210 N   0  0  0  0  0  0  0  0  0  0  0  0
   25.3620   18.4290   14.5350 C   0  0  1  0  0  0  0  0  0  0  0  0
   26.3090   17.7970   15.5510 C   0  0  0  0  0  0  0  0  0  0  0  0
   26.3150   18.6320   16.8230 C   0  0  0  0  0  0  0  0  0  0  0  0
   26.6800   20.0680   16.5290 C   0  0  0  0  0  0  0  0  0  0  0  0
   27.3420   20.7490   17.3080 O   0  0  0  0  0  0  0  0  0  0  0  0
   26.2170   20.5910   15.3490 N   0  0  0  0  0  0  0  0  0  0  0  0
   25.8270   19.8660   14.2460 C   0  0  0  0  0  0  0  0  0  0  0  0
   25.8710   20.3720   13.1260 O   0  0  0  0  0  0  0  0  0  0  0  0
   24.0490   17.0070   12.9730 C   0  0  0  0  0  0  0  0  0  0  0  0
   23.0570   16.8470   13.6580 O   0  0  0  0  0  0  0  0  0  0  0  0
   24.5300   15.5170    6.5350 C   0  0  0  0  0  0  0  0  0  0  0  0
   25.3620   11.7830    4.0150 C   0  0  0  0  0  0  0  0  0  0  0  0
   25.8910   11.0600    4.9800 N   0  0  0  0  0  0  0  0  0  0  0  0
   24.7464    9.1845    8.6779 H   0  0  0  0  0  0  0  0  0  0  0  0
   23.8606    9.4192    7.1330 H   0  0  0  0  0  0  0  0  0  0  0  0
   25.4708    8.6230    7.1330 H   0  0  0  0  0  0  0  0  0  0  0  0
   25.1937   11.4221    8.2373 H   0  0  0  0  0  0  0  0  0  0  0  0
   26.6115   10.5989    7.4535 H   0  0  0  0  0  0  0  0  0  0  0  0
   23.5217   12.8157    6.5348 H   0  0  0  0  0  0  0  0  0  0  0  0
   26.7846   14.7271    4.1003 H   0  0  0  0  0  0  0  0  0  0  0  0
   28.2627   14.8768    6.0727 H   0  0  0  0  0  0  0  0  0  0  0  0
   23.0442   14.9559    8.8499 H   0  0  0  0  0  0  0  0  0  0  0  0
   22.3413   15.5152   11.1884 H   0  0  0  0  0  0  0  0  0  0  0  0
   26.8246   17.0089    9.4685 H   0  0  0  0  0  0  0  0  0  0  0  0
   27.1279   17.3065   12.4162 H   0  0  0  0  0  0  0  0  0  0  0  0
   26.3592   18.7883   11.8985 H   0  0  0  0  0  0  0  0  0  0  0  0
   24.3497   18.4605   14.9643 H   0  0  0  0  0  0  0  0  0  0  0  0
   25.9703   16.7766   15.7833 H   0  0  0  0  0  0  0  0  0  0  0  0
   27.3253   17.7582   15.1318 H   0  0  0  0  0  0  0  0  0  0  0  0
   25.3137   18.6016   17.2774 H   0  0  0  0  0  0  0  0  0  0  0  0
   27.0648   18.2148   17.5113 H   0  0  0  0  0  0  0  0  0  0  0  0
   26.1557   21.6170   15.2822 H   0  0  0  0  0  0  0  0  0  0  0  0
   23.4566   15.7023    6.6880 H   0  0  0  0  0  0  0  0  0  0  0  0
   25.7112   11.7884    2.9719 H   0  0  0  0  0  0  0  0  0  0  0  0
  1  2  1  0
  2  3  1  0
  3  4  2  0
  4  5  1  0
  5  6  1  0
  6  7  2  0
  6  8  2  0
  6  9  1  0
  9 10  1  0
 10 11  2  0
 11 12  1  0
 12 13  2  0
 13 14  1  0
 14 15  1  0
 15 16  2  0
 16 17  1  0
 17 18  2  0
 18 19  1  0
 19 20  2  0
 19 21  1  0
 21 22  1  0
 22 23  1  0
 23 24  1  0
 24 25  1  0
 25 26  1  0
 26 27  2  0
 26 28  1  0
 28 29  1  0
 29 30  2  0
 22 31  1  0
 31 32  2  0
 14 33  2  0
  5 34  1  0
 34 35  2  0
 35  3  1  0
 33 10  1  0
 20 15  1  0
 29 23  1  0
 31 18  1  0
  1 36  1  0
  1 37  1  0
  1 38  1  0
  2 39  1  0
  2 40  1  0
  4 41  1  0
 11 42  1  0
 12 43  1  0
 16 44  1  0
 17 45  1  0
 20 46  1  0
 21 47  1  0
 21 48  1  0
 23 49  1  1
 24 50  1  0
 24 51  1  0
 25 52  1  0
 25 53  1  0
 28 54  1  0
 33 55  1  0
 34 56  1  0
M  END
>  <meeko>  (233) 
{"is_sidechain": [true], "free_energy": -13.61, "intermolecular_energy": 0.0, "internal_energy": -13.61, "cluster_size": 18, "cluster_id": 1, "rank_in_cluster": 1}

>  <_RMSD_MCS_to_ref>  (233) 
0.6291531345123106

$$$$
ligand
     RDKit          3D

 59 64  0  0  0  0  0  0  0  0999 V2000
   24.8540    9.4020    7.6050 C   0  0  0  0  0  0  0  0  0  0  0  0
   25.5230   10.7550    7.4270 C   0  0  0  0  0  0  0  0  0  0  0  0
   25.1270   11.4200    6.1560 C   0  0  0  0  0  0  0  0  0  0  0  0
   24.4490   12.6100    5.9750 C   0  0  0  0  0  0  0  0  0  0  0  0
   24.3690   12.7430    4.6210 N   0  0  0  0  0  0  0  0  0  0  0  0
   23.6470   13.9980    3.7640 S   0  0  0  0  0  6  0  0  0  0  0  0
   24.2640   13.9280    2.4520 O   0  0  0  0  0  0  0  0  0  0  0  0
   22.2140   13.8240    3.9230 O   0  0  0  0  0  0  0  0  0  0  0  0
   24.0780   15.4160    4.4250 O   0  0  0  0  0  0  0  0  0  0  0  0
   25.0410   15.5470    5.3480 C   0  0  0  0  0  0  0  0  0  0  0  0
   26.3680   15.5330    4.6920 C   0  0  0  0  0  0  0  0  0  0  0  0
   27.4040   15.6630    5.5340 C   0  0  0  0  0  0  0  0  0  0  0  0
   27.1920   15.7870    6.9050 N   0  0  0  0  0  0  0  0  0  0  0  0
   28.1230   15.9120    7.8770 N   0  0  0  0  0  0  0  0  0  0  0  0
   27.4180   15.9570    9.0080 C   0  0  0  0  0  0  0  0  0  0  0  0
   26.0270   15.8920    8.7960 C   0  0  0  0  0  0  0  0  0  0  0  0
   24.9440   15.8620    9.7560 C   0  0  0  0  0  0  0  0  0  0  0  0
   23.7830   15.1200    9.4670 C   0  0  0  0  0  0  0  0  0  0  0  0
   22.7130   15.0400   10.3790 C   0  0  0  0  0  0  0  0  0  0  0  0
   22.7840   15.6990   11.6050 C   0  0  0  0  0  0  0  0  0  0  0  0
   23.9300   16.4230   11.8690 C   0  0  0  0  0  0  0  0  0  0  0  0
   25.0030   16.5190   10.9780 C   0  0  0  0  0  0  0  0  0  0  0  0
   26.0880   17.3390   11.5940 C   0  0  0  0  0  0  0  0  0  0  0  0
   25.4910   17.7770   12.8510 N   0  0  0  0  0  0  0  0  0  0  0  0
   26.2430   18.4460   13.9050 C   0  0  2  0  0  0  0  0  0  0  0  0
   25.9970   17.8280   15.2780 C   0  0  0  0  0  0  0  0  0  0  0  0
   26.8710   18.5190   16.3120 C   0  0  0  0  0  0  0  0  0  0  0  0
   26.6330   20.0110   16.3170 C   0  0  0  0  0  0  0  0  0  0  0  0
   26.6820   20.6820   17.3430 O   0  0  0  0  0  0  0  0  0  0  0  0
   26.3810   20.5970   15.1020 N   0  0  0  0  0  0  0  0  0  0  0  0
   25.9400   19.9530   13.9670 C   0  0  0  0  0  0  0  0  0  0  0  0
   25.3510   20.5820   13.0910 O   0  0  0  0  0  0  0  0  0  0  0  0
   24.2560   17.1960   13.0720 C   0  0  0  0  0  0  0  0  0  0  0  0
   23.5450   17.2940   14.0540 O   0  0  0  0  0  0  0  0  0  0  0  0
   25.8870   15.7800    7.4250 C   0  0  0  0  0  0  0  0  0  0  0  0
   24.7900   15.6570    6.6120 N   0  0  0  0  0  0  0  0  0  0  0  0
   24.9330   11.6610    4.0270 C   0  0  0  0  0  0  0  0  0  0  0  0
   25.4250   10.8430    4.9340 N   0  0  0  0  0  0  0  0  0  0  0  0
   24.7464    9.1845    8.6779 H   0  0  0  0  0  0  0  0  0  0  0  0
   23.8606    9.4192    7.1330 H   0  0  0  0  0  0  0  0  0  0  0  0
   25.4708    8.6230    7.1330 H   0  0  0  0  0  0  0  0  0  0  0  0
   25.2384   11.4034    8.2687 H   0  0  0  0  0  0  0  0  0  0  0  0
   26.6101   10.5904    7.3952 H   0  0  0  0  0  0  0  0  0  0  0  0
   24.0627   13.2928    6.7461 H   0  0  0  0  0  0  0  0  0  0  0  0
   26.4940   15.4250    3.6046 H   0  0  0  0  0  0  0  0  0  0  0  0
   28.4303   15.6718    5.1382 H   0  0  0  0  0  0  0  0  0  0  0  0
   27.8760   16.0368   10.0049 H   0  0  0  0  0  0  0  0  0  0  0  0
   23.7099   14.5901    8.5058 H   0  0  0  0  0  0  0  0  0  0  0  0
   21.8174   14.4550   10.1227 H   0  0  0  0  0  0  0  0  0  0  0  0
   21.9608   15.6447   12.3326 H   0  0  0  0  0  0  0  0  0  0  0  0
   26.9886   16.7334   11.7733 H   0  0  0  0  0  0  0  0  0  0  0  0
   26.4185   18.1721   10.9563 H   0  0  0  0  0  0  0  0  0  0  0  0
   27.3019   18.3061   13.6421 H   0  0  0  0  0  0  0  0  0  0  0  0
   24.9387   17.9524   15.5512 H   0  0  0  0  0  0  0  0  0  0  0  0
   26.2457   16.7569   15.2465 H   0  0  0  0  0  0  0  0  0  0  0  0
   26.6370   18.1147   17.3079 H   0  0  0  0  0  0  0  0  0  0  0  0
   27.9251   18.3346   16.0573 H   0  0  0  0  0  0  0  0  0  0  0  0
   26.5360   21.6129   15.0322 H   0  0  0  0  0  0  0  0  0  0  0  0
   24.9734   11.4912    2.9409 H   0  0  0  0  0  0  0  0  0  0  0  0
  1  2  1  0
  2  3  1  0
  3  4  2  0
  4  5  1  0
  5  6  1  0
  6  7  2  0
  6  8  2  0
  6  9  1  0
  9 10  1  0
 10 11  1  0
 11 12  2  0
 12 13  1  0
 13 14  1  0
 14 15  2  0
 15 16  1  0
 16 17  1  0
 17 18  2  0
 18 19  1  0
 19 20  2  0
 20 21  1  0
 21 22  2  0
 22 23  1  0
 23 24  1  0
 24 25  1  0
 25 26  1  0
 26 27  1  0
 27 28  1  0
 28 29  2  0
 28 30  1  0
 30 31  1  0
 31 32  2  0
 24 33  1  0
 33 34  2  0
 16 35  2  0
 35 36  1  0
  5 37  1  0
 37 38  2  0
 38  3  1  0
 36 10  2  0
 35 13  1  0
 22 17  1  0
 31 25  1  0
 33 21  1  0
  1 39  1  0
  1 40  1  0
  1 41  1  0
  2 42  1  0
  2 43  1  0
  4 44  1  0
 11 45  1  0
 12 46  1  0
 15 47  1  0
 18 48  1  0
 19 49  1  0
 20 50  1  0
 23 51  1  0
 23 52  1  0
 25 53  1  6
 26 54  1  0
 26 55  1  0
 27 56  1  0
 27 57  1  0
 30 58  1  0
 37 59  1  0
M  END
>  <meeko>  (234) 
{"is_sidechain": [true], "free_energy": -13.61, "intermolecular_energy": 0.0, "internal_energy": -13.61, "cluster_size": 17, "cluster_id": 1, "rank_in_cluster": 1}

>  <_RMSD_MCS_to_ref>  (234) 
0.8646046623875101

$$$$
ligand
     RDKit          3D

 60 65  0  0  0  0  0  0  0  0999 V2000
   24.8540    9.4020    7.6050 C   0  0  0  0  0  0  0  0  0  0  0  0
   25.5230   10.7550    7.4270 C   0  0  0  0  0  0  0  0  0  0  0  0
   25.2780   11.3250    6.0740 C   0  0  0  0  0  0  0  0  0  0  0  0
   24.2910   12.2020    5.6690 C   0  0  0  0  0  0  0  0  0  0  0  0
   24.5240   12.3700    4.3330 N   0  0  0  0  0  0  0  0  0  0  0  0
   23.5660   13.2530    3.2730 S   0  0  0  0  0  6  0  0  0  0  0  0
   24.0730   12.9210    1.9520 O   0  0  0  0  0  0  0  0  0  0  0  0
   22.1910   12.9990    3.6550 O   0  0  0  0  0  0  0  0  0  0  0  0
   23.8960   14.9560    3.5490 C   0  0  0  0  0  0  0  0  0  0  0  0
   23.6200   15.8750    2.5170 C   0  0  0  0  0  0  0  0  0  0  0  0
   23.8740   17.2420    2.6860 C   0  0  0  0  0  0  0  0  0  0  0  0
   24.4100   17.7380    3.8810 C   0  0  0  0  0  0  0  0  0  0  0  0
   24.6650   16.7940    4.8670 C   0  0  0  0  0  0  0  0  0  0  0  0
   25.1880   17.0170    6.1060 O   0  0  0  0  0  0  0  0  0  0  0  0
   25.2490   15.7750    6.6770 C   0  0  0  0  0  0  0  0  0  0  0  0
   25.7110   15.6230    7.9290 N   0  0  0  0  0  0  0  0  0  0  0  0
   25.1580   15.9770    9.1740 C   0  0  0  0  0  0  0  0  0  0  0  0
   23.9520   15.4480    9.6860 C   0  0  0  0  0  0  0  0  0  0  0  0
   23.4680   15.8030   10.9510 C   0  0  0  0  0  0  0  0  0  0  0  0
   24.2150   16.6910   11.6940 C   0  0  0  0  0  0  0  0  0  0  0  0
   25.4120   17.2230   11.2330 C   0  0  0  0  0  0  0  0  0  0  0  0
   25.8950   16.8720    9.9830 C   0  0  0  0  0  0  0  0  0  0  0  0
   26.0030   18.1180   12.2680 C   0  0  0  0  0  0  0  0  0  0  0  0
   24.9740   18.1380   13.3000 N   0  0  0  0  0  0  0  0  0  0  0  0
   25.2260   18.7280   14.6110 C   0  0  1  0  0  0  0  0  0  0  0  0
   26.3120   18.0090   15.4110 C   0  0  0  0  0  0  0  0  0  0  0  0
   26.4480   18.6640   16.7760 C   0  0  0  0  0  0  0  0  0  0  0  0
   26.7460   20.1410   16.6490 C   0  0  0  0  0  0  0  0  0  0  0  0
   27.2940   20.7760   17.5450 O   0  0  0  0  0  0  0  0  0  0  0  0
   26.2980   20.7640   15.5120 N   0  0  0  0  0  0  0  0  0  0  0  0
   25.5420   20.2260   14.4950 C   0  0  0  0  0  0  0  0  0  0  0  0
   25.0730   20.9540   13.6200 O   0  0  0  0  0  0  0  0  0  0  0  0
   23.9600   17.2280   13.0340 C   0  0  0  0  0  0  0  0  0  0  0  0
   23.0320   16.8990   13.7460 O   0  0  0  0  0  0  0  0  0  0  0  0
   24.7850   14.8100    5.9090 N   0  0  0  0  0  0  0  0  0  0  0  0
   24.4260   15.4360    4.7470 C   0  0  0  0  0  0  0  0  0  0  0  0
   25.5980   11.6230    3.9690 C   0  0  0  0  0  0  0  0  0  0  0  0
   26.0870   10.9770    5.0090 N   0  0  0  0  0  0  0  0  0  0  0  0
   24.7464    9.1845    8.6779 H   0  0  0  0  0  0  0  0  0  0  0  0
   23.8606    9.4192    7.1330 H   0  0  0  0  0  0  0  0  0  0  0  0
   25.4708    8.6230    7.1330 H   0  0  0  0  0  0  0  0  0  0  0  0
   25.1260   11.4495    8.1821 H   0  0  0  0  0  0  0  0  0  0  0  0
   26.6077   10.6157    7.5455 H   0  0  0  0  0  0  0  0  0  0  0  0
   23.4997   12.6598    6.2808 H   0  0  0  0  0  0  0  0  0  0  0  0
   23.1997   15.5142    1.5666 H   0  0  0  0  0  0  0  0  0  0  0  0
   23.6484   17.9387    1.8652 H   0  0  0  0  0  0  0  0  0  0  0  0
   24.6161   18.8083    4.0293 H   0  0  0  0  0  0  0  0  0  0  0  0
   26.6326   15.1669    7.9885 H   0  0  0  0  0  0  0  0  0  0  0  0
   23.3773   14.7375    9.0737 H   0  0  0  0  0  0  0  0  0  0  0  0
   22.5255   15.3880   11.3377 H   0  0  0  0  0  0  0  0  0  0  0  0
   26.8472   17.2876    9.6217 H   0  0  0  0  0  0  0  0  0  0  0  0
   26.9463   17.7065   12.6564 H   0  0  0  0  0  0  0  0  0  0  0  0
   26.2579   19.1177   11.8864 H   0  0  0  0  0  0  0  0  0  0  0  0
   24.2914   18.6010   15.1770 H   0  0  0  0  0  0  0  0  0  0  0  0
   26.0363   16.9516   15.5368 H   0  0  0  0  0  0  0  0  0  0  0  0
   27.2697   18.0749   14.8738 H   0  0  0  0  0  0  0  0  0  0  0  0
   25.5071   18.5346   17.3309 H   0  0  0  0  0  0  0  0  0  0  0  0
   27.2829   18.1858   17.3091 H   0  0  0  0  0  0  0  0  0  0  0  0
   26.5589   21.7548   15.4063 H   0  0  0  0  0  0  0  0  0  0  0  0
   26.0036   11.5650    2.9482 H   0  0  0  0  0  0  0  0  0  0  0  0
  1  2  1  0
  2  3  1  0
  3  4  2  0
  4  5  1  0
  5  6  1  0
  6  7  2  0
  6  8  2  0
  6  9  1  0
  9 10  2  0
 10 11  1  0
 11 12  2  0
 12 13  1  0
 13 14  1  0
 14 15  1  0
 15 16  1  0
 16 17  1  0
 17 18  2  0
 18 19  1  0
 19 20  2  0
 20 21  1  0
 21 22  2  0
 21 23  1  0
 23 24  1  0
 24 25  1  0
 25 26  1  0
 26 27  1  0
 27 28  1  0
 28 29  2  0
 28 30  1  0
 30 31  1  0
 31 32  2  0
 24 33  1  0
 33 34  2  0
 15 35  2  0
 35 36  1  0
  5 37  1  0
 37 38  2  0
 38  3  1  0
 36  9  1  0
 36 13  2  0
 22 17  1  0
 31 25  1  0
 33 20  1  0
  1 39  1  0
  1 40  1  0
  1 41  1  0
  2 42  1  0
  2 43  1  0
  4 44  1  0
 10 45  1  0
 11 46  1  0
 12 47  1  0
 16 48  1  0
 18 49  1  0
 19 50  1  0
 22 51  1  0
 23 52  1  0
 23 53  1  0
 25 54  1  1
 26 55  1  0
 26 56  1  0
 27 57  1  0
 27 58  1  0
 30 59  1  0
 37 60  1  0
M  END
>  <meeko>  (235) 
{"is_sidechain": [true], "free_energy": -13.59, "intermolecular_energy": 0.0, "internal_energy": -13.59, "cluster_size": 14, "cluster_id": 1, "rank_in_cluster": 1}

>  <_RMSD_MCS_to_ref>  (235) 
0.4893890749359518

$$$$
ligand
     RDKit          3D

 58 63  0  0  0  0  0  0  0  0999 V2000
   24.8540    9.4020    7.6050 C   0  0  0  0  0  0  0  0  0  0  0  0
   25.5230   10.7550    7.4270 C   0  0  0  0  0  0  0  0  0  0  0  0
   25.2790   11.3310    6.0760 C   0  0  0  0  0  0  0  0  0  0  0  0
   26.1730   11.9360    5.2150 C   0  0  0  0  0  0  0  0  0  0  0  0
   25.4230   12.2450    4.1160 N   0  0  0  0  0  0  0  0  0  0  0  0
   25.9190   13.2130    2.8230 S   0  0  0  0  0  6  0  0  0  0  0  0
   27.3120   12.8540    2.6350 O   0  0  0  0  0  0  0  0  0  0  0  0
   24.9080   12.9830    1.8070 O   0  0  0  0  0  0  0  0  0  0  0  0
   25.8130   14.7390    3.3700 O   0  0  0  0  0  0  0  0  0  0  0  0
   25.6990   15.0100    4.6770 C   0  0  0  0  0  0  0  0  0  0  0  0
   24.5060   15.4760    5.0630 N   0  0  0  0  0  0  0  0  0  0  0  0
   24.6580   15.6450    6.3910 N   0  0  0  0  0  0  0  0  0  0  0  0
   25.9070   15.3370    6.8520 C   0  0  0  0  0  0  0  0  0  0  0  0
   26.5070   15.3630    8.1010 C   0  0  0  0  0  0  0  0  0  0  0  0
   25.8530   15.8150    9.3290 C   0  0  0  0  0  0  0  0  0  0  0  0
   24.5530   15.3660    9.6820 C   0  0  0  0  0  0  0  0  0  0  0  0
   23.9270   15.7860   10.8610 C   0  0  0  0  0  0  0  0  0  0  0  0
   24.6190   16.6680   11.6650 C   0  0  0  0  0  0  0  0  0  0  0  0
   25.8860   17.1410   11.3450 C   0  0  0  0  0  0  0  0  0  0  0  0
   26.5120   16.7260   10.1820 C   0  0  0  0  0  0  0  0  0  0  0  0
   26.3690   18.0640   12.4120 C   0  0  0  0  0  0  0  0  0  0  0  0
   25.2220   18.1500   13.3060 N   0  0  0  0  0  0  0  0  0  0  0  0
   25.3310   18.7750   14.6200 C   0  0  1  0  0  0  0  0  0  0  0  0
   26.3580   18.1110   15.5360 C   0  0  0  0  0  0  0  0  0  0  0  0
   26.3450   18.8010   16.8900 C   0  0  0  0  0  0  0  0  0  0  0  0
   26.6070   20.2830   16.7540 C   0  0  0  0  0  0  0  0  0  0  0  0
   27.0550   20.9560   17.6780 O   0  0  0  0  0  0  0  0  0  0  0  0
   26.2430   20.8680   15.5680 N   0  0  0  0  0  0  0  0  0  0  0  0
   25.6130   20.2810   14.4940 C   0  0  0  0  0  0  0  0  0  0  0  0
   25.2210   20.9680   13.5510 O   0  0  0  0  0  0  0  0  0  0  0  0
   24.2170   17.2660   12.9430 C   0  0  0  0  0  0  0  0  0  0  0  0
   23.1960   16.9880   13.5420 O   0  0  0  0  0  0  0  0  0  0  0  0
   27.7810   14.9080    8.1840 N   0  0  0  0  0  0  0  0  0  0  0  0
   28.3950   14.5010    7.0550 C   0  0  0  0  0  0  0  0  0  0  0  0
   27.8900   14.4680    5.8160 N   0  0  0  0  0  0  0  0  0  0  0  0
   26.6130   14.8940    5.7470 C   0  0  0  0  0  0  0  0  0  0  0  0
   24.1280   11.9130    4.3550 C   0  0  0  0  0  0  0  0  0  0  0  0
   24.0110   11.3260    5.5290 N   0  0  0  0  0  0  0  0  0  0  0  0
   24.7464    9.1845    8.6779 H   0  0  0  0  0  0  0  0  0  0  0  0
   23.8606    9.4192    7.1330 H   0  0  0  0  0  0  0  0  0  0  0  0
   25.4708    8.6230    7.1330 H   0  0  0  0  0  0  0  0  0  0  0  0
   25.1272   11.4480    8.1841 H   0  0  0  0  0  0  0  0  0  0  0  0
   26.6077   10.6125    7.5419 H   0  0  0  0  0  0  0  0  0  0  0  0
   27.2443   12.1258    5.3771 H   0  0  0  0  0  0  0  0  0  0  0  0
   23.9000   15.9769    7.0044 H   0  0  0  0  0  0  0  0  0  0  0  0
   24.0251   14.6711    9.0124 H   0  0  0  0  0  0  0  0  0  0  0  0
   22.9240   15.4275   11.1355 H   0  0  0  0  0  0  0  0  0  0  0  0
   27.5131   17.1026    9.9253 H   0  0  0  0  0  0  0  0  0  0  0  0
   27.2451   17.6470   12.9302 H   0  0  0  0  0  0  0  0  0  0  0  0
   26.6966   19.0413   12.0277 H   0  0  0  0  0  0  0  0  0  0  0  0
   24.3522   18.6287   15.1001 H   0  0  0  0  0  0  0  0  0  0  0  0
   26.1042   17.0482   15.6629 H   0  0  0  0  0  0  0  0  0  0  0  0
   27.3595   18.1962   15.0890 H   0  0  0  0  0  0  0  0  0  0  0  0
   25.3607   18.6527   17.3582 H   0  0  0  0  0  0  0  0  0  0  0  0
   27.1411   18.3633   17.5102 H   0  0  0  0  0  0  0  0  0  0  0  0
   26.4685   21.8681   15.4689 H   0  0  0  0  0  0  0  0  0  0  0  0
   29.4334   14.1553    7.1651 H   0  0  0  0  0  0  0  0  0  0  0  0
   23.2935   12.1070    3.6651 H   0  0  0  0  0  0  0  0  0  0  0  0
  1  2  1  0
  2  3  1  0
  3  4  2  0
  4  5  1  0
  5  6  1  0
  6  7  2  0
  6  8  2  0
  6  9  1  0
  9 10  1  0
 10 11  2  0
 11 12  1  0
 12 13  1  0
 13 14  2  0
 14 15  1  0
 15 16  2  0
 16 17  1  0
 17 18  2  0
 18 19  1  0
 19 20  2  0
 19 21  1  0
 21 22  1  0
 22 23  1  0
 23 24  1  0
 24 25  1  0
 25 26  1  0
 26 27  2  0
 26 28  1  0
 28 29  1  0
 29 30  2  0
 22 31  1  0
 31 32  2  0
 14 33  1  0
 33 34  2  0
 34 35  1  0
 35 36  2  0
  5 37  1  0
 37 38  2  0
 38  3  1  0
 36 10  1  0
 36 13  1  0
 20 15  1  0
 29 23  1  0
 31 18  1  0
  1 39  1  0
  1 40  1  0
  1 41  1  0
  2 42  1  0
  2 43  1  0
  4 44  1  0
 12 45  1  0
 16 46  1  0
 17 47  1  0
 20 48  1  0
 21 49  1  0
 21 50  1  0
 23 51  1  1
 24 52  1  0
 24 53  1  0
 25 54  1  0
 25 55  1  0
 28 56  1  0
 34 57  1  0
 37 58  1  0
M  END
>  <meeko>  (236) 
{"is_sidechain": [true], "free_energy": -13.59, "intermolecular_energy": 0.0, "internal_energy": -13.59, "cluster_size": 2, "cluster_id": 2, "rank_in_cluster": 1}

>  <_RMSD_MCS_to_ref>  (236) 
0.6224048343142722

$$$$
ligand
     RDKit          3D

 64 69  0  0  0  0  0  0  0  0999 V2000
   24.8540    9.4020    7.6050 C   0  0  0  0  0  0  0  0  0  0  0  0
   25.5230   10.7550    7.4270 C   0  0  0  0  0  0  0  0  0  0  0  0
   25.9280   11.0030    6.0150 C   0  0  0  0  0  0  0  0  0  0  0  0
   27.1520   11.4050    5.5200 C   0  0  0  0  0  0  0  0  0  0  0  0
   26.9660   11.4600    4.1680 N   0  0  0  0  0  0  0  0  0  0  0  0
   28.0350   12.1390    3.0620 S   0  0  0  0  0  6  0  0  0  0  0  0
   29.1790   11.2480    3.0420 O   0  0  0  0  0  0  0  0  0  0  0  0
   27.2570   12.4380    1.8770 O   0  0  0  0  0  0  0  0  0  0  0  0
   28.5050   13.6530    3.8280 C   0  0  0  0  0  0  0  0  0  0  0  0
   29.8130   14.1420    3.7210 C   0  0  0  0  0  0  0  0  0  0  0  0
   30.1690   15.3460    4.3570 C   0  0  0  0  0  0  0  0  0  0  0  0
   29.2280   16.0680    5.0960 C   0  0  0  0  0  0  0  0  0  0  0  0
   27.9510   15.5590    5.1710 C   0  0  0  0  0  0  0  0  0  0  0  0
   27.5910   14.3890    4.5470 C   0  0  0  0  0  0  0  0  0  0  0  0
   26.1630   14.4690    5.0070 C   0  0  0  0  0  0  0  0  0  0  0  0
   26.5740   15.7950    5.7450 C   0  0  1  0  0  0  0  0  0  0  0  0
   26.4810   15.7970    7.3020 C   0  0  0  0  0  0  0  0  0  0  0  0
   27.4730   15.5520    7.9970 O   0  0  0  0  0  0  0  0  0  0  0  0
   25.2300   16.1140    7.8180 N   0  0  0  0  0  0  0  0  0  0  0  0
   24.8440   16.2330    9.1690 C   0  0  0  0  0  0  0  0  0  0  0  0
   23.7360   15.5740    9.7370 C   0  0  0  0  0  0  0  0  0  0  0  0
   23.4060   15.7290   11.0940 C   0  0  0  0  0  0  0  0  0  0  0  0
   24.2030   16.5440   11.8730 C   0  0  0  0  0  0  0  0  0  0  0  0
   25.2940   17.1910   11.3060 C   0  0  0  0  0  0  0  0  0  0  0  0
   25.6360   17.0620    9.9720 C   0  0  0  0  0  0  0  0  0  0  0  0
   25.9500   17.9830   12.3500 C   0  0  0  0  0  0  0  0  0  0  0  0
   26.8900   18.7310   12.1580 O   0  0  0  0  0  0  0  0  0  0  0  0
   25.2820   17.7160   13.5350 N   0  0  0  0  0  0  0  0  0  0  0  0
   25.4720   18.4620   14.7740 C   0  0  1  0  0  0  0  0  0  0  0  0
   26.6050   17.9210   15.6460 C   0  0  0  0  0  0  0  0  0  0  0  0
   26.6790   18.7280   16.9340 C   0  0  0  0  0  0  0  0  0  0  0  0
   26.8640   20.2000   16.6470 C   0  0  0  0  0  0  0  0  0  0  0  0
   27.3670   20.9670   17.4620 O   0  0  0  0  0  0  0  0  0  0  0  0
   26.3670   20.6630   15.4550 N   0  0  0  0  0  0  0  0  0  0  0  0
   25.6740   19.9590   14.4960 C   0  0  0  0  0  0  0  0  0  0  0  0
   25.1710   20.5460   13.5380 O   0  0  0  0  0  0  0  0  0  0  0  0
   24.0900   16.9050   13.3150 C   0  0  0  0  0  0  0  0  0  0  0  0
   25.6800   11.1330    3.8830 C   0  0  0  0  0  0  0  0  0  0  0  0
   25.0200   10.8510    4.9870 N   0  0  0  0  0  0  0  0  0  0  0  0
   24.7464    9.1845    8.6779 H   0  0  0  0  0  0  0  0  0  0  0  0
   23.8606    9.4192    7.1330 H   0  0  0  0  0  0  0  0  0  0  0  0
   25.4708    8.6230    7.1330 H   0  0  0  0  0  0  0  0  0  0  0  0
   24.8189   11.5414    7.7366 H   0  0  0  0  0  0  0  0  0  0  0  0
   26.4328   10.7649    8.0452 H   0  0  0  0  0  0  0  0  0  0  0  0
   28.0684   11.6298    6.0854 H   0  0  0  0  0  0  0  0  0  0  0  0
   30.5624   13.5848    3.1396 H   0  0  0  0  0  0  0  0  0  0  0  0
   31.1989   15.7227    4.2715 H   0  0  0  0  0  0  0  0  0  0  0  0
   29.4976   17.0083    5.5992 H   0  0  0  0  0  0  0  0  0  0  0  0
   25.4245   14.5978    4.2020 H   0  0  0  0  0  0  0  0  0  0  0  0
   25.6673   13.6370    5.5285 H   0  0  0  0  0  0  0  0  0  0  0  0
   26.0185   16.7340    5.6051 H   0  0  0  0  0  0  0  0  0  0  0  0
   24.4887   16.2841    7.1234 H   0  0  0  0  0  0  0  0  0  0  0  0
   23.1150   14.9233    9.1038 H   0  0  0  0  0  0  0  0  0  0  0  0
   22.5347   15.2140   11.5248 H   0  0  0  0  0  0  0  0  0  0  0  0
   26.5036   17.5944    9.5550 H   0  0  0  0  0  0  0  0  0  0  0  0
   24.5441   18.3254   15.3488 H   0  0  0  0  0  0  0  0  0  0  0  0
   26.4122   16.8647   15.8850 H   0  0  0  0  0  0  0  0  0  0  0  0
   27.5586   18.0045   15.1040 H   0  0  0  0  0  0  0  0  0  0  0  0
   25.7461   18.5872   17.4996 H   0  0  0  0  0  0  0  0  0  0  0  0
   27.5429   18.3756   17.5166 H   0  0  0  0  0  0  0  0  0  0  0  0
   26.5326   21.6593   15.2528 H   0  0  0  0  0  0  0  0  0  0  0  0
   24.0977   16.0073   13.9507 H   0  0  0  0  0  0  0  0  0  0  0  0
   23.1541   17.4271   13.5630 H   0  0  0  0  0  0  0  0  0  0  0  0
   25.2492   11.1072    2.8712 H   0  0  0  0  0  0  0  0  0  0  0  0
  1  2  1  0
  2  3  1  0
  3  4  2  0
  4  5  1  0
  5  6  1  0
  6  7  2  0
  6  8  2  0
  6  9  1  0
  9 10  2  0
 10 11  1  0
 11 12  2  0
 12 13  1  0
 13 14  2  0
 14 15  1  0
 15 16  1  0
 16 17  1  0
 17 18  2  0
 17 19  1  0
 19 20  1  0
 20 21  2  0
 21 22  1  0
 22 23  2  0
 23 24  1  0
 24 25  2  0
 24 26  1  0
 26 27  2  0
 26 28  1  0
 28 29  1  0
 29 30  1  0
 30 31  1  0
 31 32  1  0
 32 33  2  0
 32 34  1  0
 34 35  1  0
 35 36  2  0
 28 37  1  0
  5 38  1  0
 38 39  2  0
 39  3  1  0
 14  9  1  0
 25 20  1  0
 35 29  1  0
 16 13  1  0
 37 23  1  0
  1 40  1  0
  1 41  1  0
  1 42  1  0
  2 43  1  0
  2 44  1  0
  4 45  1  0
 10 46  1  0
 11 47  1  0
 12 48  1  0
 15 49  1  0
 15 50  1  0
 16 51  1  6
 19 52  1  0
 21 53  1  0
 22 54  1  0
 25 55  1  0
 29 56  1  1
 30 57  1  0
 30 58  1  0
 31 59  1  0
 31 60  1  0
 34 61  1  0
 37 62  1  0
 37 63  1  0
 38 64  1  0
M  END
>  <meeko>  (237) 
{"is_sidechain": [true], "free_energy": -13.59, "intermolecular_energy": 0.0, "internal_energy": -13.59, "cluster_size": 20, "cluster_id": 1, "rank_in_cluster": 1}

>  <_RMSD_MCS_to_ref>  (237) 
0.5622940734171034

$$$$
ligand
     RDKit          3D

 64 69  0  0  0  0  0  0  0  0999 V2000
   24.8540    9.4020    7.6050 C   0  0  0  0  0  0  0  0  0  0  0  0
   25.5230   10.7550    7.4270 C   0  0  0  0  0  0  0  0  0  0  0  0
   24.7530   11.6480    6.5190 C   0  0  0  0  0  0  0  0  0  0  0  0
   24.8490   11.7860    5.1490 C   0  0  0  0  0  0  0  0  0  0  0  0
   23.9030   12.7210    4.8390 N   0  0  0  0  0  0  0  0  0  0  0  0
   23.6900   13.4440    3.3380 S   0  0  0  0  0  6  0  0  0  0  0  0
   22.3130   13.8930    3.2990 O   0  0  0  0  0  0  0  0  0  0  0  0
   24.2290   12.5070    2.3710 O   0  0  0  0  0  0  0  0  0  0  0  0
   24.7510   14.8620    3.4070 C   0  0  0  0  0  0  0  0  0  0  0  0
   24.8110   15.7350    2.2980 C   0  0  0  0  0  0  0  0  0  0  0  0
   25.6370   16.8610    2.3370 C   0  0  0  0  0  0  0  0  0  0  0  0
   26.3770   17.0620    3.4800 C   0  0  0  0  0  0  0  0  0  0  0  0
   26.3260   16.2020    4.5490 C   0  0  0  0  0  0  0  0  0  0  0  0
   25.5270   15.0820    4.5510 C   0  0  0  0  0  0  0  0  0  0  0  0
   27.3340   16.9880    5.3550 C   0  0  2  0  0  0  0  0  0  0  0  0
   26.7330   17.4950    6.7050 C   0  0  0  0  0  0  0  0  0  0  0  0
   26.6270   18.6880    6.9930 O   0  0  0  0  0  0  0  0  0  0  0  0
   26.3400   16.4490    7.5310 N   0  0  0  0  0  0  0  0  0  0  0  0
   25.7610   16.5230    8.8160 C   0  0  0  0  0  0  0  0  0  0  0  0
   24.5470   15.9020    9.1720 C   0  0  0  0  0  0  0  0  0  0  0  0
   24.0140   16.0160   10.4660 C   0  0  0  0  0  0  0  0  0  0  0  0
   24.7150   16.7530   11.4000 C   0  0  0  0  0  0  0  0  0  0  0  0
   25.9130   17.3600   11.0440 C   0  0  0  0  0  0  0  0  0  0  0  0
   26.4570   17.2700    9.7750 C   0  0  0  0  0  0  0  0  0  0  0  0
   26.4300   18.0710   12.2170 C   0  0  0  0  0  0  0  0  0  0  0  0
   27.4240   18.7710   12.2130 O   0  0  0  0  0  0  0  0  0  0  0  0
   25.5660   17.7970   13.2660 N   0  0  0  0  0  0  0  0  0  0  0  0
   25.5860   18.4890   14.5500 C   0  0  1  0  0  0  0  0  0  0  0  0
   26.6610   17.9770   15.5080 C   0  0  0  0  0  0  0  0  0  0  0  0
   26.5530   18.7200   16.8300 C   0  0  0  0  0  0  0  0  0  0  0  0
   26.6630   20.2130   16.6320 C   0  0  0  0  0  0  0  0  0  0  0  0
   27.0230   20.9690   17.5300 O   0  0  0  0  0  0  0  0  0  0  0  0
   26.2600   20.7040   15.4140 N   0  0  0  0  0  0  0  0  0  0  0  0
   25.7110   20.0090   14.3610 C   0  0  0  0  0  0  0  0  0  0  0  0
   25.2650   20.6120   13.3850 O   0  0  0  0  0  0  0  0  0  0  0  0
   24.3890   17.0620   12.8210 C   0  0  0  0  0  0  0  0  0  0  0  0
   27.3620   17.9840    4.1400 C   0  0  0  0  0  0  0  0  0  0  0  0
   23.3090   13.1490    5.9820 C   0  0  0  0  0  0  0  0  0  0  0  0
   23.7940   12.5050    7.0240 N   0  0  0  0  0  0  0  0  0  0  0  0
   24.7464    9.1845    8.6779 H   0  0  0  0  0  0  0  0  0  0  0  0
   23.8606    9.4192    7.1330 H   0  0  0  0  0  0  0  0  0  0  0  0
   25.4708    8.6230    7.1330 H   0  0  0  0  0  0  0  0  0  0  0  0
   25.6095   11.2395    8.4107 H   0  0  0  0  0  0  0  0  0  0  0  0
   26.5117   10.5859    6.9756 H   0  0  0  0  0  0  0  0  0  0  0  0
   25.5316   11.2625    4.4634 H   0  0  0  0  0  0  0  0  0  0  0  0
   24.2066   15.5279    1.4026 H   0  0  0  0  0  0  0  0  0  0  0  0
   25.6937   17.5588    1.4885 H   0  0  0  0  0  0  0  0  0  0  0  0
   25.4994   14.3938    5.4087 H   0  0  0  0  0  0  0  0  0  0  0  0
   28.2763   16.5886    5.7583 H   0  0  0  0  0  0  0  0  0  0  0  0
   26.4901   15.5004    7.1587 H   0  0  0  0  0  0  0  0  0  0  0  0
   24.0038   15.3137    8.4178 H   0  0  0  0  0  0  0  0  0  0  0  0
   23.0625   15.5307   10.7290 H   0  0  0  0  0  0  0  0  0  0  0  0
   27.4055   17.7690    9.5272 H   0  0  0  0  0  0  0  0  0  0  0  0
   24.6184   18.2635   15.0222 H   0  0  0  0  0  0  0  0  0  0  0  0
   26.5174   16.9000   15.6793 H   0  0  0  0  0  0  0  0  0  0  0  0
   27.6556   18.1478   15.0702 H   0  0  0  0  0  0  0  0  0  0  0  0
   25.5812   18.4906   17.2914 H   0  0  0  0  0  0  0  0  0  0  0  0
   27.3792   18.3945   17.4792 H   0  0  0  0  0  0  0  0  0  0  0  0
   26.3840   21.7165   15.2715 H   0  0  0  0  0  0  0  0  0  0  0  0
   24.2518   16.1407   13.4061 H   0  0  0  0  0  0  0  0  0  0  0  0
   23.4513   17.6242   12.9419 H   0  0  0  0  0  0  0  0  0  0  0  0
   26.9779   18.9913    4.3587 H   0  0  0  0  0  0  0  0  0  0  0  0
   28.2996   18.2883    3.6518 H   0  0  0  0  0  0  0  0  0  0  0  0
   22.5312   13.9253    6.0314 H   0  0  0  0  0  0  0  0  0  0  0  0
  1  2  1  0
  2  3  1  0
  3  4  2  0
  4  5  1  0
  5  6  1  0
  6  7  2  0
  6  8  2  0
  6  9  1  0
  9 10  2  0
 10 11  1  0
 11 12  2  0
 12 13  1  0
 13 14  2  0
 13 15  1  0
 15 16  1  0
 16 17  2  0
 16 18  1  0
 18 19  1  0
 19 20  2  0
 20 21  1  0
 21 22  2  0
 22 23  1  0
 23 24  2  0
 23 25  1  0
 25 26  2  0
 25 27  1  0
 27 28  1  0
 28 29  1  0
 29 30  1  0
 30 31  1  0
 31 32  2  0
 31 33  1  0
 33 34  1  0
 34 35  2  0
 27 36  1  0
 15 37  1  0
  5 38  1  0
 38 39  2  0
 39  3  1  0
 14  9  1  0
 24 19  1  0
 34 28  1  0
 37 12  1  0
 36 22  1  0
  1 40  1  0
  1 41  1  0
  1 42  1  0
  2 43  1  0
  2 44  1  0
  4 45  1  0
 10 46  1  0
 11 47  1  0
 14 48  1  0
 15 49  1  1
 18 50  1  0
 20 51  1  0
 21 52  1  0
 24 53  1  0
 28 54  1  1
 29 55  1  0
 29 56  1  0
 30 57  1  0
 30 58  1  0
 33 59  1  0
 36 60  1  0
 36 61  1  0
 37 62  1  0
 37 63  1  0
 38 64  1  0
M  END
>  <meeko>  (238) 
{"is_sidechain": [true], "free_energy": -13.59, "intermolecular_energy": 0.0, "internal_energy": -13.59, "cluster_size": 17, "cluster_id": 1, "rank_in_cluster": 1}

>  <_RMSD_MCS_to_ref>  (238) 
0.6486743212121159

$$$$
ligand
     RDKit          3D

 53 57  0  0  0  0  0  0  0  0999 V2000
   24.8710    9.6160    7.7820 C   0  0  0  0  0  0  0  0  0  0  0  0
   25.4240   10.9650    7.3490 C   0  0  0  0  0  0  0  0  0  0  0  0
   26.8870   11.0770    7.5910 C   0  0  0  0  0  0  0  0  0  0  0  0
   27.6330   12.1940    7.9120 C   0  0  0  0  0  0  0  0  0  0  0  0
   28.9170   11.7320    7.9830 N   0  0  0  0  0  0  0  0  0  0  0  0
   30.2380   12.5850    8.6020 S   0  0  0  0  0  6  0  0  0  0  0  0
   31.2540   11.5690    8.7980 O   0  0  0  0  0  0  0  0  0  0  0  0
   30.4100   13.6900    7.6780 O   0  0  0  0  0  0  0  0  0  0  0  0
   29.7430   13.1500   10.0480 O   0  0  0  0  0  0  0  0  0  0  0  0
   28.7880   14.0890   10.1020 C   0  0  0  0  0  0  0  0  0  0  0  0
   27.4990   13.8060   10.4770 C   0  0  0  0  0  0  0  0  0  0  0  0
   26.8420   15.0150   10.4050 N   0  0  0  0  0  0  0  0  0  0  0  0
   25.4850   15.3090   10.6940 C   0  0  0  0  0  0  0  0  0  0  0  0
   24.4610   14.8940    9.8180 C   0  0  0  0  0  0  0  0  0  0  0  0
   23.1080   15.1850   10.0880 C   0  0  0  0  0  0  0  0  0  0  0  0
   22.7500   15.8920   11.2320 C   0  0  0  0  0  0  0  0  0  0  0  0
   23.7680   16.2880   12.0800 C   0  0  0  0  0  0  0  0  0  0  0  0
   25.1180   16.0140   11.8390 C   0  0  0  0  0  0  0  0  0  0  0  0
   25.9380   16.6090   12.9440 C   0  0  0  0  0  0  0  0  0  0  0  0
   24.9320   17.1510   13.8480 N   0  0  0  0  0  0  0  0  0  0  0  0
   25.2480   18.0720   14.9340 C   0  0  1  0  0  0  0  0  0  0  0  0
   26.3040   17.5150   15.8840 C   0  0  0  0  0  0  0  0  0  0  0  0
   26.5140   18.4900   17.0340 C   0  0  0  0  0  0  0  0  0  0  0  0
   26.8830   19.8640   16.5260 C   0  0  0  0  0  0  0  0  0  0  0  0
   27.6360   20.6110   17.1440 O   0  0  0  0  0  0  0  0  0  0  0  0
   26.3080   20.2580   15.3450 N   0  0  0  0  0  0  0  0  0  0  0  0
   25.7170   19.4400   14.4080 C   0  0  0  0  0  0  0  0  0  0  0  0
   25.5880   19.8190   13.2470 O   0  0  0  0  0  0  0  0  0  0  0  0
   23.6540   17.0460   13.3290 C   0  0  0  0  0  0  0  0  0  0  0  0
   22.6180   17.4840   13.7880 O   0  0  0  0  0  0  0  0  0  0  0  0
   27.7160   15.9700   10.0020 N   0  0  0  0  0  0  0  0  0  0  0  0
   28.9040   15.4120    9.8170 N   0  0  0  0  0  0  0  0  0  0  0  0
   28.9150   10.3870    7.7940 C   0  0  0  0  0  0  0  0  0  0  0  0
   27.6990    9.9590    7.5310 N   0  0  0  0  0  0  0  0  0  0  0  0
   24.8497    9.5640    8.8806 H   0  0  0  0  0  0  0  0  0  0  0  0
   23.8507    9.4948    7.3893 H   0  0  0  0  0  0  0  0  0  0  0  0
   25.5127    8.8135    7.3893 H   0  0  0  0  0  0  0  0  0  0  0  0
   25.2317   11.0981    6.2742 H   0  0  0  0  0  0  0  0  0  0  0  0
   24.9230   11.7421    7.9449 H   0  0  0  0  0  0  0  0  0  0  0  0
   27.2751   13.2215    8.0737 H   0  0  0  0  0  0  0  0  0  0  0  0
   27.0827   12.8309   10.7700 H   0  0  0  0  0  0  0  0  0  0  0  0
   24.7222   14.3335    8.9082 H   0  0  0  0  0  0  0  0  0  0  0  0
   22.3283   14.8501    9.3880 H   0  0  0  0  0  0  0  0  0  0  0  0
   21.6983   16.1267   11.4531 H   0  0  0  0  0  0  0  0  0  0  0  0
   26.5444   15.8394   13.4440 H   0  0  0  0  0  0  0  0  0  0  0  0
   26.6544   17.3655   12.5912 H   0  0  0  0  0  0  0  0  0  0  0  0
   24.3090   18.2014   15.4921 H   0  0  0  0  0  0  0  0  0  0  0  0
   25.9662   16.5464   16.2811 H   0  0  0  0  0  0  0  0  0  0  0  0
   27.2508   17.3776   15.3412 H   0  0  0  0  0  0  0  0  0  0  0  0
   25.5846   18.5612   17.6181 H   0  0  0  0  0  0  0  0  0  0  0  0
   27.3383   18.1175   17.6599 H   0  0  0  0  0  0  0  0  0  0  0  0
   26.3193   21.2669   15.1381 H   0  0  0  0  0  0  0  0  0  0  0  0
   29.8062    9.7448    7.8527 H   0  0  0  0  0  0  0  0  0  0  0  0
  1  2  1  0
  2  3  1  0
  3  4  2  0
  4  5  1  0
  5  6  1  0
  6  7  2  0
  6  8  2  0
  6  9  1  0
  9 10  1  0
 10 11  2  0
 11 12  1  0
 12 13  1  0
 13 14  2  0
 14 15  1  0
 15 16  2  0
 16 17  1  0
 17 18  2  0
 18 19  1  0
 19 20  1  0
 20 21  1  0
 21 22  1  0
 22 23  1  0
 23 24  1  0
 24 25  2  0
 24 26  1  0
 26 27  1  0
 27 28  2  0
 20 29  1  0
 29 30  2  0
 12 31  1  0
 31 32  2  0
  5 33  1  0
 33 34  2  0
 34  3  1  0
 32 10  1  0
 18 13  1  0
 27 21  1  0
 29 17  1  0
  1 35  1  0
  1 36  1  0
  1 37  1  0
  2 38  1  0
  2 39  1  0
  4 40  1  0
 11 41  1  0
 14 42  1  0
 15 43  1  0
 16 44  1  0
 19 45  1  0
 19 46  1  0
 21 47  1  1
 22 48  1  0
 22 49  1  0
 23 50  1  0
 23 51  1  0
 26 52  1  0
 33 53  1  0
M  END
>  <meeko>  (239) 
{"is_sidechain": [true], "free_energy": -13.59, "intermolecular_energy": 0.0, "internal_energy": -13.59, "cluster_size": 19, "cluster_id": 1, "rank_in_cluster": 1}

>  <_RMSD_MCS_to_ref>  (239) 
0.9284845478281023

$$$$
ligand
     RDKit          3D

 56 60  0  0  0  0  0  0  0  0999 V2000
   24.8540    9.4020    7.6050 C   0  0  0  0  0  0  0  0  0  0  0  0
   25.5230   10.7550    7.4270 C   0  0  0  0  0  0  0  0  0  0  0  0
   24.7270   11.6670    6.5610 C   0  0  0  0  0  0  0  0  0  0  0  0
   25.0640   12.2220    5.3420 C   0  0  0  0  0  0  0  0  0  0  0  0
   23.9610   12.9440    4.9860 N   0  0  0  0  0  0  0  0  0  0  0  0
   23.8730   14.0390    3.7080 S   0  0  0  0  0  6  0  0  0  0  0  0
   24.8730   13.5860    2.7610 O   0  0  0  0  0  0  0  0  0  0  0  0
   22.4650   14.0930    3.3610 O   0  0  0  0  0  0  0  0  0  0  0  0
   24.3280   15.4810    4.3170 O   0  0  0  0  0  0  0  0  0  0  0  0
   25.2820   15.5880    5.2920 C   0  0  0  0  0  0  0  0  0  0  0  0
   26.6540   15.4710    5.1220 C   0  0  0  0  0  0  0  0  0  0  0  0
   27.5450   15.5870    6.1340 N   0  0  0  0  0  0  0  0  0  0  0  0
   27.0440   15.8310    7.3670 C   0  0  0  0  0  0  0  0  0  0  0  0
   25.6880   15.9640    7.6630 C   0  0  0  0  0  0  0  0  0  0  0  0
   25.2090   16.2210    9.0300 C   0  0  0  0  0  0  0  0  0  0  0  0
   23.9340   15.7620    9.4530 C   0  0  0  0  0  0  0  0  0  0  0  0
   23.4480   15.9980   10.7470 C   0  0  0  0  0  0  0  0  0  0  0  0
   24.2510   16.6960   11.6260 C   0  0  0  0  0  0  0  0  0  0  0  0
   25.5010   17.1480   11.2180 C   0  0  0  0  0  0  0  0  0  0  0  0
   26.0020   16.9320    9.9470 C   0  0  0  0  0  0  0  0  0  0  0  0
   26.1200   17.8580   12.3430 C   0  0  0  0  0  0  0  0  0  0  0  0
   27.1810   18.4480   12.2850 O   0  0  0  0  0  0  0  0  0  0  0  0
   25.2560   17.7330   13.4200 N   0  0  0  0  0  0  0  0  0  0  0  0
   25.3800   18.4860   14.6640 C   0  0  1  0  0  0  0  0  0  0  0  0
   26.4290   17.9230   15.6220 C   0  0  0  0  0  0  0  0  0  0  0  0
   26.4310   18.7410   16.9040 C   0  0  0  0  0  0  0  0  0  0  0  0
   26.6760   20.2040   16.6200 C   0  0  0  0  0  0  0  0  0  0  0  0
   27.1270   20.9690   17.4690 O   0  0  0  0  0  0  0  0  0  0  0  0
   26.2920   20.6670   15.3870 N   0  0  0  0  0  0  0  0  0  0  0  0
   25.6450   19.9740   14.3880 C   0  0  0  0  0  0  0  0  0  0  0  0
   25.2240   20.5660   13.3950 O   0  0  0  0  0  0  0  0  0  0  0  0
   23.9950   17.1110   13.0360 C   0  0  0  0  0  0  0  0  0  0  0  0
   24.8040   15.8370    6.5820 C   0  0  0  0  0  0  0  0  0  0  0  0
   23.0480   12.8840    5.9900 C   0  0  0  0  0  0  0  0  0  0  0  0
   23.4730   12.0920    6.9520 N   0  0  0  0  0  0  0  0  0  0  0  0
   24.7464    9.1845    8.6779 H   0  0  0  0  0  0  0  0  0  0  0  0
   23.8606    9.4192    7.1330 H   0  0  0  0  0  0  0  0  0  0  0  0
   25.4708    8.6230    7.1330 H   0  0  0  0  0  0  0  0  0  0  0  0
   25.6453   11.2223    8.4153 H   0  0  0  0  0  0  0  0  0  0  0  0
   26.4948   10.5893    6.9390 H   0  0  0  0  0  0  0  0  0  0  0  0
   26.0058   12.1084    4.7851 H   0  0  0  0  0  0  0  0  0  0  0  0
   27.0382   15.2734    4.1104 H   0  0  0  0  0  0  0  0  0  0  0  0
   27.7590   15.9318    8.1968 H   0  0  0  0  0  0  0  0  0  0  0  0
   23.3070   15.2031    8.7427 H   0  0  0  0  0  0  0  0  0  0  0  0
   22.4549   15.6370   11.0528 H   0  0  0  0  0  0  0  0  0  0  0  0
   26.9958   17.3071    9.6612 H   0  0  0  0  0  0  0  0  0  0  0  0
   24.4099   18.3806   15.1718 H   0  0  0  0  0  0  0  0  0  0  0  0
   26.1886   16.8752   15.8553 H   0  0  0  0  0  0  0  0  0  0  0  0
   27.4220   17.9737   15.1515 H   0  0  0  0  0  0  0  0  0  0  0  0
   25.4560   18.6307   17.4011 H   0  0  0  0  0  0  0  0  0  0  0  0
   27.2409   18.3720   17.5505 H   0  0  0  0  0  0  0  0  0  0  0  0
   26.5145   21.6520   15.1838 H   0  0  0  0  0  0  0  0  0  0  0  0
   23.7719   16.2412   13.6714 H   0  0  0  0  0  0  0  0  0  0  0  0
   23.1277   17.7789   13.1442 H   0  0  0  0  0  0  0  0  0  0  0  0
   23.7214   15.9345    6.7510 H   0  0  0  0  0  0  0  0  0  0  0  0
   22.0884   13.4216    5.9981 H   0  0  0  0  0  0  0  0  0  0  0  0
  1  2  1  0
  2  3  1  0
  3  4  2  0
  4  5  1  0
  5  6  1  0
  6  7  2  0
  6  8  2  0
  6  9  1  0
  9 10  1  0
 10 11  2  0
 11 12  1  0
 12 13  2  0
 13 14  1  0
 14 15  1  0
 15 16  2  0
 16 17  1  0
 17 18  2  0
 18 19  1  0
 19 20  2  0
 19 21  1  0
 21 22  2  0
 21 23  1  0
 23 24  1  0
 24 25  1  0
 25 26  1  0
 26 27  1  0
 27 28  2  0
 27 29  1  0
 29 30  1  0
 30 31  2  0
 23 32  1  0
 14 33  2  0
  5 34  1  0
 34 35  2  0
 35  3  1  0
 33 10  1  0
 20 15  1  0
 30 24  1  0
 32 18  1  0
  1 36  1  0
  1 37  1  0
  1 38  1  0
  2 39  1  0
  2 40  1  0
  4 41  1  0
 11 42  1  0
 13 43  1  0
 16 44  1  0
 17 45  1  0
 20 46  1  0
 24 47  1  1
 25 48  1  0
 25 49  1  0
 26 50  1  0
 26 51  1  0
 29 52  1  0
 32 53  1  0
 32 54  1  0
 33 55  1  0
 34 56  1  0
M  END
>  <meeko>  (240) 
{"is_sidechain": [true], "free_energy": -13.58, "intermolecular_energy": 0.0, "internal_energy": -13.58, "cluster_size": 18, "cluster_id": 1, "rank_in_cluster": 1}

>  <_RMSD_MCS_to_ref>  (240) 
0.5218719510888975

$$$$
ligand
     RDKit          3D

 59 63  0  0  0  0  0  0  0  0999 V2000
   24.8540    9.4020    7.6050 C   0  0  0  0  0  0  0  0  0  0  0  0
   25.5230   10.7550    7.4270 C   0  0  0  0  0  0  0  0  0  0  0  0
   25.2920   11.3440    6.0770 C   0  0  0  0  0  0  0  0  0  0  0  0
   24.6130   12.4960    5.7330 C   0  0  0  0  0  0  0  0  0  0  0  0
   24.6920   12.5400    4.3690 N   0  0  0  0  0  0  0  0  0  0  0  0
   24.3010   13.8570    3.3990 S   0  0  0  0  0  6  0  0  0  0  0  0
   22.9440   14.2210    3.7580 O   0  0  0  0  0  0  0  0  0  0  0  0
   24.6800   13.4770    2.0510 O   0  0  0  0  0  0  0  0  0  0  0  0
   25.3920   15.1490    3.9400 C   0  0  0  0  0  0  0  0  0  0  0  0
   26.3320   15.6680    3.0630 C   0  0  0  0  0  0  0  0  0  0  0  0
   27.1640   16.6770    3.5400 C   0  0  0  0  0  0  0  0  0  0  0  0
   27.0230   17.1210    4.8550 C   0  0  0  0  0  0  0  0  0  0  0  0
   26.0450   16.5380    5.6560 C   0  0  0  0  0  0  0  0  0  0  0  0
   25.8550   16.9940    7.0740 C   0  0  0  0  0  0  0  0  0  0  0  0
   26.3240   18.0710    7.4260 O   0  0  0  0  0  0  0  0  0  0  0  0
   25.1350   16.1010    7.8490 N   0  0  0  0  0  0  0  0  0  0  0  0
   24.7560   16.2320    9.1990 C   0  0  0  0  0  0  0  0  0  0  0  0
   23.6460   15.5710    9.7630 C   0  0  0  0  0  0  0  0  0  0  0  0
   23.3160   15.7190   11.1200 C   0  0  0  0  0  0  0  0  0  0  0  0
   24.1150   16.5290   11.9030 C   0  0  0  0  0  0  0  0  0  0  0  0
   25.2110   17.1760   11.3390 C   0  0  0  0  0  0  0  0  0  0  0  0
   25.5480   17.0590   10.0030 C   0  0  0  0  0  0  0  0  0  0  0  0
   25.8700   17.9550   12.3920 C   0  0  0  0  0  0  0  0  0  0  0  0
   26.8310   18.6820   12.2340 O   0  0  0  0  0  0  0  0  0  0  0  0
   25.1690   17.7180   13.5640 N   0  0  0  0  0  0  0  0  0  0  0  0
   25.4110   18.4810   14.7850 C   0  0  1  0  0  0  0  0  0  0  0  0
   26.5310   17.8440   15.6090 C   0  0  0  0  0  0  0  0  0  0  0  0
   26.6760   18.5760   16.9330 C   0  0  0  0  0  0  0  0  0  0  0  0
   26.9160   20.0510   16.7200 C   0  0  0  0  0  0  0  0  0  0  0  0
   27.5990   20.7240   17.4850 O   0  0  0  0  0  0  0  0  0  0  0  0
   26.3030   20.6210   15.6340 N   0  0  0  0  0  0  0  0  0  0  0  0
   25.7190   19.9710   14.5700 C   0  0  0  0  0  0  0  0  0  0  0  0
   25.4510   20.5950   13.5450 O   0  0  0  0  0  0  0  0  0  0  0  0
   24.0080   16.8620   13.3530 C   0  0  0  0  0  0  0  0  0  0  0  0
   25.2160   15.5490    5.2250 N   0  0  0  0  0  0  0  0  0  0  0  0
   25.4050   11.4690    3.9320 C   0  0  0  0  0  0  0  0  0  0  0  0
   25.7960   10.7290    4.9470 N   0  0  0  0  0  0  0  0  0  0  0  0
   24.7464    9.1845    8.6779 H   0  0  0  0  0  0  0  0  0  0  0  0
   23.8606    9.4192    7.1330 H   0  0  0  0  0  0  0  0  0  0  0  0
   25.4708    8.6230    7.1330 H   0  0  0  0  0  0  0  0  0  0  0  0
   25.1241   11.4460    8.1842 H   0  0  0  0  0  0  0  0  0  0  0  0
   26.6068   10.6045    7.5401 H   0  0  0  0  0  0  0  0  0  0  0  0
   24.1204   13.2150    6.4041 H   0  0  0  0  0  0  0  0  0  0  0  0
   26.4170   15.2971    2.0309 H   0  0  0  0  0  0  0  0  0  0  0  0
   27.9275   17.1212    2.8845 H   0  0  0  0  0  0  0  0  0  0  0  0
   27.6718   17.9161    5.2511 H   0  0  0  0  0  0  0  0  0  0  0  0
   24.8398   15.2328    7.3799 H   0  0  0  0  0  0  0  0  0  0  0  0
   23.0243   14.9248    9.1259 H   0  0  0  0  0  0  0  0  0  0  0  0
   22.4438   15.2032   11.5482 H   0  0  0  0  0  0  0  0  0  0  0  0
   26.4109   17.5987    9.5858 H   0  0  0  0  0  0  0  0  0  0  0  0
   24.4561   18.4429   15.3297 H   0  0  0  0  0  0  0  0  0  0  0  0
   26.2887   16.7882   15.8001 H   0  0  0  0  0  0  0  0  0  0  0  0
   27.4764   17.9121   15.0508 H   0  0  0  0  0  0  0  0  0  0  0  0
   25.7543   18.4437   17.5186 H   0  0  0  0  0  0  0  0  0  0  0  0
   27.5405   18.1571   17.4688 H   0  0  0  0  0  0  0  0  0  0  0  0
   26.2764   21.6504   15.6117 H   0  0  0  0  0  0  0  0  0  0  0  0
   24.0633   15.9561   13.9745 H   0  0  0  0  0  0  0  0  0  0  0  0
   23.0549   17.3390   13.6253 H   0  0  0  0  0  0  0  0  0  0  0  0
   25.6247   11.2511    2.8764 H   0  0  0  0  0  0  0  0  0  0  0  0
  1  2  1  0
  2  3  1  0
  3  4  2  0
  4  5  1  0
  5  6  1  0
  6  7  2  0
  6  8  2  0
  6  9  1  0
  9 10  2  0
 10 11  1  0
 11 12  2  0
 12 13  1  0
 13 14  1  0
 14 15  2  0
 14 16  1  0
 16 17  1  0
 17 18  2  0
 18 19  1  0
 19 20  2  0
 20 21  1  0
 21 22  2  0
 21 23  1  0
 23 24  2  0
 23 25  1  0
 25 26  1  0
 26 27  1  0
 27 28  1  0
 28 29  1  0
 29 30  2  0
 29 31  1  0
 31 32  1  0
 32 33  2  0
 25 34  1  0
 13 35  2  0
  5 36  1  0
 36 37  2  0
 37  3  1  0
 35  9  1  0
 22 17  1  0
 32 26  1  0
 34 20  1  0
  1 38  1  0
  1 39  1  0
  1 40  1  0
  2 41  1  0
  2 42  1  0
  4 43  1  0
 10 44  1  0
 11 45  1  0
 12 46  1  0
 16 47  1  0
 18 48  1  0
 19 49  1  0
 22 50  1  0
 26 51  1  1
 27 52  1  0
 27 53  1  0
 28 54  1  0
 28 55  1  0
 31 56  1  0
 34 57  1  0
 34 58  1  0
 36 59  1  0
M  END
>  <meeko>  (241) 
{"is_sidechain": [true], "free_energy": -13.58, "intermolecular_energy": 0.0, "internal_energy": -13.58, "cluster_size": 20, "cluster_id": 1, "rank_in_cluster": 1}

>  <_RMSD_MCS_to_ref>  (241) 
0.5645427353177076

$$$$
ligand
     RDKit          3D

 55 59  0  0  0  0  0  0  0  0999 V2000
   24.8540    9.4020    7.6050 C   0  0  0  0  0  0  0  0  0  0  0  0
   25.5230   10.7550    7.4270 C   0  0  0  0  0  0  0  0  0  0  0  0
   25.1360   11.4100    6.1480 C   0  0  0  0  0  0  0  0  0  0  0  0
   24.4830   12.6110    5.9490 C   0  0  0  0  0  0  0  0  0  0  0  0
   24.4060   12.7280    4.5900 N   0  0  0  0  0  0  0  0  0  0  0  0
   23.6450   13.9750    3.7540 S   0  0  0  0  0  6  0  0  0  0  0  0
   24.1500   13.9140    2.3940 O   0  0  0  0  0  0  0  0  0  0  0  0
   22.2340   13.7540    4.0250 O   0  0  0  0  0  0  0  0  0  0  0  0
   24.0530   15.3980    4.4290 O   0  0  0  0  0  0  0  0  0  0  0  0
   24.9550   15.4120    5.4620 C   0  0  0  0  0  0  0  0  0  0  0  0
   26.2760   15.2160    5.1430 C   0  0  0  0  0  0  0  0  0  0  0  0
   27.1490   15.2860    6.1960 C   0  0  0  0  0  0  0  0  0  0  0  0
   26.7630   15.5430    7.4590 N   0  0  0  0  0  0  0  0  0  0  0  0
   25.4480   15.7450    7.6670 C   0  0  0  0  0  0  0  0  0  0  0  0
   25.0040   16.0460    9.0460 C   0  0  0  0  0  0  0  0  0  0  0  0
   23.8340   15.4520    9.5930 C   0  0  0  0  0  0  0  0  0  0  0  0
   23.3930   15.7310   10.8940 C   0  0  0  0  0  0  0  0  0  0  0  0
   24.1390   16.6210   11.6380 C   0  0  0  0  0  0  0  0  0  0  0  0
   25.2900   17.2210   11.1450 C   0  0  0  0  0  0  0  0  0  0  0  0
   25.7330   16.9350    9.8640 C   0  0  0  0  0  0  0  0  0  0  0  0
   25.8880   18.1170   12.1760 C   0  0  0  0  0  0  0  0  0  0  0  0
   24.9140   18.0460   13.2580 N   0  0  0  0  0  0  0  0  0  0  0  0
   25.2010   18.6130   14.5700 C   0  0  1  0  0  0  0  0  0  0  0  0
   26.3010   17.8740   15.3320 C   0  0  0  0  0  0  0  0  0  0  0  0
   26.4740   18.5070   16.7030 C   0  0  0  0  0  0  0  0  0  0  0  0
   26.7830   19.9820   16.5920 C   0  0  0  0  0  0  0  0  0  0  0  0
   27.3580   20.6000   17.4830 O   0  0  0  0  0  0  0  0  0  0  0  0
   26.3110   20.6270   15.4760 N   0  0  0  0  0  0  0  0  0  0  0  0
   25.5290   20.1110   14.4680 C   0  0  0  0  0  0  0  0  0  0  0  0
   25.0480   20.8560   13.6150 O   0  0  0  0  0  0  0  0  0  0  0  0
   23.9280   17.1010   13.0080 C   0  0  0  0  0  0  0  0  0  0  0  0
   23.0520   16.7040   13.7520 O   0  0  0  0  0  0  0  0  0  0  0  0
   24.5120   15.6940    6.6970 N   0  0  0  0  0  0  0  0  0  0  0  0
   24.9380   11.6200    4.0140 C   0  0  0  0  0  0  0  0  0  0  0  0
   25.4250   10.8110    4.9350 N   0  0  0  0  0  0  0  0  0  0  0  0
   24.7464    9.1845    8.6779 H   0  0  0  0  0  0  0  0  0  0  0  0
   23.8606    9.4192    7.1330 H   0  0  0  0  0  0  0  0  0  0  0  0
   25.4708    8.6230    7.1330 H   0  0  0  0  0  0  0  0  0  0  0  0
   25.2295   11.4079    8.2622 H   0  0  0  0  0  0  0  0  0  0  0  0
   26.6109   10.5937    7.4079 H   0  0  0  0  0  0  0  0  0  0  0  0
   24.1105   13.3123    6.7102 H   0  0  0  0  0  0  0  0  0  0  0  0
   26.6097   15.0167    4.1140 H   0  0  0  0  0  0  0  0  0  0  0  0
   28.2191   15.1240    5.9993 H   0  0  0  0  0  0  0  0  0  0  0  0
   23.2554   14.7500    8.9746 H   0  0  0  0  0  0  0  0  0  0  0  0
   22.4884   15.2591   11.3050 H   0  0  0  0  0  0  0  0  0  0  0  0
   26.6540   17.4014    9.4842 H   0  0  0  0  0  0  0  0  0  0  0  0
   26.8716   17.7476   12.5016 H   0  0  0  0  0  0  0  0  0  0  0  0
   26.0698   19.1403   11.8158 H   0  0  0  0  0  0  0  0  0  0  0  0
   24.2790   18.4848   15.1560 H   0  0  0  0  0  0  0  0  0  0  0  0
   26.0209   16.8166   15.4481 H   0  0  0  0  0  0  0  0  0  0  0  0
   27.2459   17.9414   14.7729 H   0  0  0  0  0  0  0  0  0  0  0  0
   25.5446   18.3779   17.2771 H   0  0  0  0  0  0  0  0  0  0  0  0
   27.3163   18.0131   17.2095 H   0  0  0  0  0  0  0  0  0  0  0  0
   26.5743   21.6183   15.3815 H   0  0  0  0  0  0  0  0  0  0  0  0
   24.9599   11.4243    2.9318 H   0  0  0  0  0  0  0  0  0  0  0  0
  1  2  1  0
  2  3  1  0
  3  4  2  0
  4  5  1  0
  5  6  1  0
  6  7  2  0
  6  8  2  0
  6  9  1  0
  9 10  1  0
 10 11  2  0
 11 12  1  0
 12 13  2  0
 13 14  1  0
 14 15  1  0
 15 16  2  0
 16 17  1  0
 17 18  2  0
 18 19  1  0
 19 20  2  0
 19 21  1  0
 21 22  1  0
 22 23  1  0
 23 24  1  0
 24 25  1  0
 25 26  1  0
 26 27  2  0
 26 28  1  0
 28 29  1  0
 29 30  2  0
 22 31  1  0
 31 32  2  0
 14 33  2  0
  5 34  1  0
 34 35  2  0
 35  3  1  0
 33 10  1  0
 20 15  1  0
 29 23  1  0
 31 18  1  0
  1 36  1  0
  1 37  1  0
  1 38  1  0
  2 39  1  0
  2 40  1  0
  4 41  1  0
 11 42  1  0
 12 43  1  0
 16 44  1  0
 17 45  1  0
 20 46  1  0
 21 47  1  0
 21 48  1  0
 23 49  1  1
 24 50  1  0
 24 51  1  0
 25 52  1  0
 25 53  1  0
 28 54  1  0
 34 55  1  0
M  END
>  <meeko>  (242) 
{"is_sidechain": [true], "free_energy": -13.57, "intermolecular_energy": 0.0, "internal_energy": -13.57, "cluster_size": 16, "cluster_id": 1, "rank_in_cluster": 1}

>  <_RMSD_MCS_to_ref>  (242) 
0.4125283828619138

$$$$
ligand
     RDKit          3D

 60 64  0  0  0  0  0  0  0  0999 V2000
   24.8540    9.4020    7.6050 C   0  0  0  0  0  0  0  0  0  0  0  0
   25.5230   10.7550    7.4270 C   0  0  0  0  0  0  0  0  0  0  0  0
   27.0060   10.6630    7.5010 C   0  0  0  0  0  0  0  0  0  0  0  0
   27.9450   11.6650    7.3560 C   0  0  0  0  0  0  0  0  0  0  0  0
   29.1430   11.0260    7.5060 N   0  0  0  0  0  0  0  0  0  0  0  0
   30.6510   11.7580    7.6340 S   0  0  0  0  0  6  0  0  0  0  0  0
   31.0490   12.1120    6.2860 O   0  0  0  0  0  0  0  0  0  0  0  0
   31.4360   10.8670    8.4660 O   0  0  0  0  0  0  0  0  0  0  0  0
   30.3370   13.2490    8.5370 C   0  0  0  0  0  0  0  0  0  0  0  0
   31.3700   14.1650    8.7440 C   0  0  0  0  0  0  0  0  0  0  0  0
   31.1090   15.3310    9.4590 C   0  0  0  0  0  0  0  0  0  0  0  0
   29.8260   15.5750    9.9570 C   0  0  0  0  0  0  0  0  0  0  0  0
   28.7840   14.6610    9.7420 C   0  0  0  0  0  0  0  0  0  0  0  0
   27.5210   14.9830   10.2850 N   0  0  0  0  0  0  0  0  0  0  0  0
   26.5630   15.8190    9.7380 C   0  0  0  0  0  0  0  0  0  0  0  0
   26.6680   16.4700    8.7060 O   0  0  0  0  0  0  0  0  0  0  0  0
   25.3080   15.9490   10.5290 C   0  0  0  0  0  0  0  0  0  0  0  0
   24.0670   15.4930   10.0450 C   0  0  0  0  0  0  0  0  0  0  0  0
   22.8960   15.6210   10.8170 C   0  0  0  0  0  0  0  0  0  0  0  0
   22.9430   16.2080   12.0810 C   0  0  0  0  0  0  0  0  0  0  0  0
   24.1700   16.6630   12.5280 C   0  0  0  0  0  0  0  0  0  0  0  0
   25.3390   16.5550   11.7770 C   0  0  0  0  0  0  0  0  0  0  0  0
   26.4730   17.1810   12.5200 C   0  0  0  0  0  0  0  0  0  0  0  0
   25.8680   17.5170   13.8040 N   0  0  0  0  0  0  0  0  0  0  0  0
   26.5730   18.3500   14.7730 C   0  0  2  0  0  0  0  0  0  0  0  0
   26.1580   18.0860   16.2200 C   0  0  0  0  0  0  0  0  0  0  0  0
   26.9920   18.9530   17.1490 C   0  0  0  0  0  0  0  0  0  0  0  0
   26.8580   20.4170   16.7990 C   0  0  0  0  0  0  0  0  0  0  0  0
   27.0520   21.3070   17.6230 O   0  0  0  0  0  0  0  0  0  0  0  0
   26.5850   20.7140   15.4890 N   0  0  0  0  0  0  0  0  0  0  0  0
   26.4280   19.8430   14.4360 C   0  0  0  0  0  0  0  0  0  0  0  0
   26.2760   20.2710   13.2920 O   0  0  0  0  0  0  0  0  0  0  0  0
   24.4980   17.3180   13.7980 C   0  0  0  0  0  0  0  0  0  0  0  0
   23.6840   17.6200   14.6490 O   0  0  0  0  0  0  0  0  0  0  0  0
   29.0460   13.4970    9.0210 C   0  0  0  0  0  0  0  0  0  0  0  0
   28.9170    9.7120    7.7680 C   0  0  0  0  0  0  0  0  0  0  0  0
   27.6250    9.4550    7.7630 N   0  0  0  0  0  0  0  0  0  0  0  0
   24.7464    9.1845    8.6779 H   0  0  0  0  0  0  0  0  0  0  0  0
   23.8606    9.4192    7.1330 H   0  0  0  0  0  0  0  0  0  0  0  0
   25.4708    8.6230    7.1330 H   0  0  0  0  0  0  0  0  0  0  0  0
   25.2420   11.1626    6.4447 H   0  0  0  0  0  0  0  0  0  0  0  0
   25.1842   11.4092    8.2438 H   0  0  0  0  0  0  0  0  0  0  0  0
   27.7686   12.7336    7.1637 H   0  0  0  0  0  0  0  0  0  0  0  0
   32.3770   13.9682    8.3474 H   0  0  0  0  0  0  0  0  0  0  0  0
   31.9135   16.0610    9.6321 H   0  0  0  0  0  0  0  0  0  0  0  0
   29.6308   16.4964   10.5253 H   0  0  0  0  0  0  0  0  0  0  0  0
   27.2865   14.5474   11.1884 H   0  0  0  0  0  0  0  0  0  0  0  0
   24.0112   15.0298    9.0489 H   0  0  0  0  0  0  0  0  0  0  0  0
   21.9375   15.2553   10.4200 H   0  0  0  0  0  0  0  0  0  0  0  0
   22.0383   16.3054   12.6991 H   0  0  0  0  0  0  0  0  0  0  0  0
   27.3041   16.4716   12.6466 H   0  0  0  0  0  0  0  0  0  0  0  0
   26.9085   18.0483   12.0022 H   0  0  0  0  0  0  0  0  0  0  0  0
   27.6327   18.0659   14.6936 H   0  0  0  0  0  0  0  0  0  0  0  0
   25.0930   18.3304   16.3471 H   0  0  0  0  0  0  0  0  0  0  0  0
   26.3205   17.0253   16.4618 H   0  0  0  0  0  0  0  0  0  0  0  0
   26.6526   18.7992   18.1840 H   0  0  0  0  0  0  0  0  0  0  0  0
   28.0478   18.6644   17.0395 H   0  0  0  0  0  0  0  0  0  0  0  0
   26.4849   21.7144   15.2651 H   0  0  0  0  0  0  0  0  0  0  0  0
   28.2392   12.7735    8.8322 H   0  0  0  0  0  0  0  0  0  0  0  0
   29.7034    8.9667    7.9578 H   0  0  0  0  0  0  0  0  0  0  0  0
  1  2  1  0
  2  3  1  0
  3  4  2  0
  4  5  1  0
  5  6  1  0
  6  7  2  0
  6  8  2  0
  6  9  1  0
  9 10  2  0
 10 11  1  0
 11 12  2  0
 12 13  1  0
 13 14  1  0
 14 15  1  0
 15 16  2  0
 15 17  1  0
 17 18  2  0
 18 19  1  0
 19 20  2  0
 20 21  1  0
 21 22  2  0
 22 23  1  0
 23 24  1  0
 24 25  1  0
 25 26  1  0
 26 27  1  0
 27 28  1  0
 28 29  2  0
 28 30  1  0
 30 31  1  0
 31 32  2  0
 24 33  1  0
 33 34  2  0
 13 35  2  0
  5 36  1  0
 36 37  2  0
 37  3  1  0
 35  9  1  0
 22 17  1  0
 31 25  1  0
 33 21  1  0
  1 38  1  0
  1 39  1  0
  1 40  1  0
  2 41  1  0
  2 42  1  0
  4 43  1  0
 10 44  1  0
 11 45  1  0
 12 46  1  0
 14 47  1  0
 18 48  1  0
 19 49  1  0
 20 50  1  0
 23 51  1  0
 23 52  1  0
 25 53  1  1
 26 54  1  0
 26 55  1  0
 27 56  1  0
 27 57  1  0
 30 58  1  0
 35 59  1  0
 36 60  1  0
M  END
>  <meeko>  (243) 
{"is_sidechain": [true], "free_energy": -13.57, "intermolecular_energy": 0.0, "internal_energy": -13.57, "cluster_size": 11, "cluster_id": 1, "rank_in_cluster": 1}

>  <_RMSD_MCS_to_ref>  (243) 
1.1734277779224414

$$$$
ligand
     RDKit          3D

 59 63  0  0  0  0  0  0  0  0999 V2000
   24.8540    9.4020    7.6050 C   0  0  0  0  0  0  0  0  0  0  0  0
   25.5230   10.7550    7.4270 C   0  0  0  0  0  0  0  0  0  0  0  0
   24.7720   11.6420    6.4970 C   0  0  0  0  0  0  0  0  0  0  0  0
   25.0400   11.9380    5.1750 C   0  0  0  0  0  0  0  0  0  0  0  0
   24.0310   12.7810    4.8100 N   0  0  0  0  0  0  0  0  0  0  0  0
   23.8750   13.5810    3.3490 S   0  0  0  0  0  6  0  0  0  0  0  0
   22.4690   13.8550    3.1300 O   0  0  0  0  0  0  0  0  0  0  0  0
   24.6470   12.7760    2.4170 O   0  0  0  0  0  0  0  0  0  0  0  0
   24.6650   15.1000    3.3180 C   0  0  0  0  0  0  0  0  0  0  0  0
   24.7350   15.9070    2.1970 C   0  0  0  0  0  0  0  0  0  0  0  0
   25.5630   16.9310    2.5250 N   0  0  0  0  0  0  0  0  0  0  0  0
   26.0580   16.8320    3.7680 N   0  0  0  0  0  0  0  0  0  0  0  0
   25.4500   15.7600    4.2920 C   0  0  0  0  0  0  0  0  0  0  0  0
   25.7470   15.4980    5.6130 N   0  0  0  0  0  0  0  0  0  0  0  0
   25.0410   16.0240    6.6710 C   0  0  0  0  0  0  0  0  0  0  0  0
   24.0780   16.7650    6.5270 O   0  0  0  0  0  0  0  0  0  0  0  0
   25.5510   15.5830    7.8750 N   0  0  0  0  0  0  0  0  0  0  0  0
   25.1530   15.9850    9.1660 C   0  0  0  0  0  0  0  0  0  0  0  0
   23.9540   15.4290    9.6690 C   0  0  0  0  0  0  0  0  0  0  0  0
   23.4750   15.7670   10.9370 C   0  0  0  0  0  0  0  0  0  0  0  0
   24.2200   16.6600   11.6780 C   0  0  0  0  0  0  0  0  0  0  0  0
   25.4090   17.2090   11.2120 C   0  0  0  0  0  0  0  0  0  0  0  0
   25.8930   16.8760    9.9560 C   0  0  0  0  0  0  0  0  0  0  0  0
   25.9960   18.1080   12.2460 C   0  0  0  0  0  0  0  0  0  0  0  0
   24.9740   18.1090   13.2850 N   0  0  0  0  0  0  0  0  0  0  0  0
   25.2250   18.7010   14.5940 C   0  0  1  0  0  0  0  0  0  0  0  0
   26.3110   17.9820   15.3950 C   0  0  0  0  0  0  0  0  0  0  0  0
   26.4490   18.6390   16.7590 C   0  0  0  0  0  0  0  0  0  0  0  0
   26.7500   20.1140   16.6290 C   0  0  0  0  0  0  0  0  0  0  0  0
   27.3060   20.7490   17.5210 O   0  0  0  0  0  0  0  0  0  0  0  0
   26.2960   20.7380   15.4940 N   0  0  0  0  0  0  0  0  0  0  0  0
   25.5460   20.1990   14.4740 C   0  0  0  0  0  0  0  0  0  0  0  0
   25.0900   20.9240   13.5910 O   0  0  0  0  0  0  0  0  0  0  0  0
   23.9680   17.1910   13.0220 C   0  0  0  0  0  0  0  0  0  0  0  0
   23.0480   16.8490   13.7370 O   0  0  0  0  0  0  0  0  0  0  0  0
   23.2640   13.0500    5.8980 C   0  0  0  0  0  0  0  0  0  0  0  0
   23.6520   12.3280    6.9290 N   0  0  0  0  0  0  0  0  0  0  0  0
   24.7464    9.1845    8.6779 H   0  0  0  0  0  0  0  0  0  0  0  0
   23.8606    9.4192    7.1330 H   0  0  0  0  0  0  0  0  0  0  0  0
   25.4708    8.6230    7.1330 H   0  0  0  0  0  0  0  0  0  0  0  0
   25.5898   11.2477    8.4082 H   0  0  0  0  0  0  0  0  0  0  0  0
   26.5192   10.5819    6.9939 H   0  0  0  0  0  0  0  0  0  0  0  0
   25.8756   11.5768    4.5575 H   0  0  0  0  0  0  0  0  0  0  0  0
   24.2238   15.7507    1.2356 H   0  0  0  0  0  0  0  0  0  0  0  0
   25.7885   17.7056    1.8846 H   0  0  0  0  0  0  0  0  0  0  0  0
   26.5406   14.8746    5.8192 H   0  0  0  0  0  0  0  0  0  0  0  0
   26.3052   14.8833    7.8248 H   0  0  0  0  0  0  0  0  0  0  0  0
   23.3880   14.7171    9.0503 H   0  0  0  0  0  0  0  0  0  0  0  0
   22.5409   15.3380   11.3287 H   0  0  0  0  0  0  0  0  0  0  0  0
   26.8377   17.3020    9.5872 H   0  0  0  0  0  0  0  0  0  0  0  0
   26.9477   17.7079   12.6258 H   0  0  0  0  0  0  0  0  0  0  0  0
   26.2350   19.1126   11.8670 H   0  0  0  0  0  0  0  0  0  0  0  0
   24.2897   18.5775   15.1596 H   0  0  0  0  0  0  0  0  0  0  0  0
   26.0341   16.9251   15.5228 H   0  0  0  0  0  0  0  0  0  0  0  0
   27.2684   18.0462   14.8571 H   0  0  0  0  0  0  0  0  0  0  0  0
   25.5080   18.5128   17.3146 H   0  0  0  0  0  0  0  0  0  0  0  0
   27.2829   18.1598   17.2928 H   0  0  0  0  0  0  0  0  0  0  0  0
   26.5476   21.7317   15.3934 H   0  0  0  0  0  0  0  0  0  0  0  0
   22.4336   13.7711    5.9157 H   0  0  0  0  0  0  0  0  0  0  0  0
  1  2  1  0
  2  3  1  0
  3  4  2  0
  4  5  1  0
  5  6  1  0
  6  7  2  0
  6  8  2  0
  6  9  1  0
  9 10  2  0
 10 11  1  0
 11 12  1  0
 12 13  2  0
 13 14  1  0
 14 15  1  0
 15 16  2  0
 15 17  1  0
 17 18  1  0
 18 19  2  0
 19 20  1  0
 20 21  2  0
 21 22  1  0
 22 23  2  0
 22 24  1  0
 24 25  1  0
 25 26  1  0
 26 27  1  0
 27 28  1  0
 28 29  1  0
 29 30  2  0
 29 31  1  0
 31 32  1  0
 32 33  2  0
 25 34  1  0
 34 35  2  0
  5 36  1  0
 36 37  2  0
 37  3  1  0
 13  9  1  0
 23 18  1  0
 32 26  1  0
 34 21  1  0
  1 38  1  0
  1 39  1  0
  1 40  1  0
  2 41  1  0
  2 42  1  0
  4 43  1  0
 10 44  1  0
 11 45  1  0
 14 46  1  0
 17 47  1  0
 19 48  1  0
 20 49  1  0
 23 50  1  0
 24 51  1  0
 24 52  1  0
 26 53  1  1
 27 54  1  0
 27 55  1  0
 28 56  1  0
 28 57  1  0
 31 58  1  0
 36 59  1  0
M  END
>  <meeko>  (244) 
{"is_sidechain": [true], "free_energy": -13.57, "intermolecular_energy": 0.0, "internal_energy": -13.57, "cluster_size": 16, "cluster_id": 1, "rank_in_cluster": 1}

>  <_RMSD_MCS_to_ref>  (244) 
0.472998825462483

$$$$
ligand
     RDKit          3D

 58 62  0  0  0  0  0  0  0  0999 V2000
   24.8710    9.6160    7.7820 C   0  0  0  0  0  0  0  0  0  0  0  0
   25.4240   10.9650    7.3490 C   0  0  0  0  0  0  0  0  0  0  0  0
   26.8330   10.8660    6.8780 C   0  0  0  0  0  0  0  0  0  0  0  0
   27.3160   10.8610    5.5850 C   0  0  0  0  0  0  0  0  0  0  0  0
   28.6710   10.7640    5.7330 N   0  0  0  0  0  0  0  0  0  0  0  0
   29.8210   11.0390    4.5260 S   0  0  0  0  0  6  0  0  0  0  0  0
   29.3400   10.3060    3.3680 O   0  0  0  0  0  0  0  0  0  0  0  0
   31.0850   10.6980    5.1540 O   0  0  0  0  0  0  0  0  0  0  0  0
   29.8310   12.6450    4.2020 O   0  0  0  0  0  0  0  0  0  0  0  0
   28.6430   13.3260    4.2220 C   0  0  0  0  0  0  0  0  0  0  0  0
   27.9400   13.5560    3.0410 C   0  0  0  0  0  0  0  0  0  0  0  0
   26.7260   14.2400    3.0860 C   0  0  0  0  0  0  0  0  0  0  0  0
   26.2270   14.6970    4.3080 C   0  0  0  0  0  0  0  0  0  0  0  0
   26.9470   14.4810    5.4860 C   0  0  0  0  0  0  0  0  0  0  0  0
   26.4270   14.9290    6.7390 C   0  0  0  0  0  0  0  0  0  0  0  0
   25.9890   15.2790    7.8010 C   0  0  0  0  0  0  0  0  0  0  0  0
   25.4470   15.6920    9.0580 C   0  0  0  0  0  0  0  0  0  0  0  0
   24.1500   15.2680    9.4300 C   0  0  0  0  0  0  0  0  0  0  0  0
   23.5880   15.6580   10.6510 C   0  0  0  0  0  0  0  0  0  0  0  0
   24.3550   16.4650   11.4670 C   0  0  0  0  0  0  0  0  0  0  0  0
   25.6230   16.8790   11.1030 C   0  0  0  0  0  0  0  0  0  0  0  0
   26.2020   16.5110    9.9040 C   0  0  0  0  0  0  0  0  0  0  0  0
   26.1370   17.7190   12.1820 C   0  0  0  0  0  0  0  0  0  0  0  0
   27.2220   18.2690   12.1660 O   0  0  0  0  0  0  0  0  0  0  0  0
   25.1760   17.7390   13.1580 N   0  0  0  0  0  0  0  0  0  0  0  0
   25.2660   18.5960   14.3300 C   0  0  2  0  0  0  0  0  0  0  0  0
   25.9420   19.9400   14.0760 C   0  0  0  0  0  0  0  0  0  0  0  0
   25.9410   20.7530   15.3620 C   0  0  0  0  0  0  0  0  0  0  0  0
   26.6090   19.9990   16.4890 C   0  0  0  0  0  0  0  0  0  0  0  0
   27.1650   20.5720   17.4210 O   0  0  0  0  0  0  0  0  0  0  0  0
   26.5150   18.6300   16.4550 N   0  0  0  0  0  0  0  0  0  0  0  0
   25.9920   17.8450   15.4510 C   0  0  0  0  0  0  0  0  0  0  0  0
   26.0690   16.6180   15.5150 O   0  0  0  0  0  0  0  0  0  0  0  0
   24.0600   17.0450   12.7760 C   0  0  0  0  0  0  0  0  0  0  0  0
   22.9990   16.9180   13.3540 O   0  0  0  0  0  0  0  0  0  0  0  0
   28.1690   13.8080    5.4410 C   0  0  0  0  0  0  0  0  0  0  0  0
   28.9730   10.7560    7.0570 C   0  0  0  0  0  0  0  0  0  0  0  0
   27.8750   10.8020    7.7830 N   0  0  0  0  0  0  0  0  0  0  0  0
   24.8497    9.5640    8.8806 H   0  0  0  0  0  0  0  0  0  0  0  0
   23.8507    9.4948    7.3893 H   0  0  0  0  0  0  0  0  0  0  0  0
   25.5127    8.8135    7.3893 H   0  0  0  0  0  0  0  0  0  0  0  0
   24.8027   11.3571    6.5303 H   0  0  0  0  0  0  0  0  0  0  0  0
   25.4038   11.6357    8.2207 H   0  0  0  0  0  0  0  0  0  0  0  0
   26.7413   10.9213    4.6490 H   0  0  0  0  0  0  0  0  0  0  0  0
   28.3401   13.2004    2.0800 H   0  0  0  0  0  0  0  0  0  0  0  0
   26.1612   14.4198    2.1593 H   0  0  0  0  0  0  0  0  0  0  0  0
   25.2645   15.2284    4.3431 H   0  0  0  0  0  0  0  0  0  0  0  0
   23.5748   14.6225    8.7500 H   0  0  0  0  0  0  0  0  0  0  0  0
   22.5790   15.3355   10.9475 H   0  0  0  0  0  0  0  0  0  0  0  0
   27.2120   16.8471    9.6268 H   0  0  0  0  0  0  0  0  0  0  0  0
   24.2326   18.8358   14.6207 H   0  0  0  0  0  0  0  0  0  0  0  0
   26.9784   19.7739   13.7468 H   0  0  0  0  0  0  0  0  0  0  0  0
   25.3947   20.4863   13.2937 H   0  0  0  0  0  0  0  0  0  0  0  0
   26.4825   21.6951   15.1908 H   0  0  0  0  0  0  0  0  0  0  0  0
   24.8971   20.9504   15.6471 H   0  0  0  0  0  0  0  0  0  0  0  0
   26.8790   18.1299   17.2786 H   0  0  0  0  0  0  0  0  0  0  0  0
   28.7537   13.6591    6.3608 H   0  0  0  0  0  0  0  0  0  0  0  0
   29.9932   10.7166    7.4664 H   0  0  0  0  0  0  0  0  0  0  0  0
  1  2  1  0
  2  3  1  0
  3  4  2  0
  4  5  1  0
  5  6  1  0
  6  7  2  0
  6  8  2  0
  6  9  1  0
  9 10  1  0
 10 11  2  0
 11 12  1  0
 12 13  2  0
 13 14  1  0
 14 15  1  0
 15 16  3  0
 16 17  1  0
 17 18  2  0
 18 19  1  0
 19 20  2  0
 20 21  1  0
 21 22  2  0
 21 23  1  0
 23 24  2  0
 23 25  1  0
 25 26  1  0
 26 27  1  0
 27 28  1  0
 28 29  1  0
 29 30  2  0
 29 31  1  0
 31 32  1  0
 32 33  2  0
 25 34  1  0
 34 35  2  0
 14 36  2  0
  5 37  1  0
 37 38  2  0
 38  3  1  0
 36 10  1  0
 22 17  1  0
 32 26  1  0
 34 20  1  0
  1 39  1  0
  1 40  1  0
  1 41  1  0
  2 42  1  0
  2 43  1  0
  4 44  1  0
 11 45  1  0
 12 46  1  0
 13 47  1  0
 18 48  1  0
 19 49  1  0
 22 50  1  0
 26 51  1  1
 27 52  1  0
 27 53  1  0
 28 54  1  0
 28 55  1  0
 31 56  1  0
 36 57  1  0
 37 58  1  0
M  END
>  <meeko>  (245) 
{"is_sidechain": [true], "free_energy": -13.57, "intermolecular_energy": 0.0, "internal_energy": -13.57, "cluster_size": 17, "cluster_id": 1, "rank_in_cluster": 1}

>  <_RMSD_MCS_to_ref>  (245) 
1.5972438267544706

$$$$
ligand
     RDKit          3D

 59 64  0  0  0  0  0  0  0  0999 V2000
   24.8710    9.6160    7.7820 C   0  0  0  0  0  0  0  0  0  0  0  0
   25.4240   10.9650    7.3490 C   0  0  0  0  0  0  0  0  0  0  0  0
   26.8960   10.9250    7.1320 C   0  0  0  0  0  0  0  0  0  0  0  0
   27.9150   11.2340    8.0100 C   0  0  0  0  0  0  0  0  0  0  0  0
   29.0550   10.9860    7.3020 N   0  0  0  0  0  0  0  0  0  0  0  0
   30.6150   11.4130    7.7700 S   0  0  0  0  0  6  0  0  0  0  0  0
   31.1850   12.0960    6.6250 O   0  0  0  0  0  0  0  0  0  0  0  0
   31.2000   10.1970    8.3000 O   0  0  0  0  0  0  0  0  0  0  0  0
   30.4550   12.4840    8.9870 O   0  0  0  0  0  0  0  0  0  0  0  0
   29.3160   13.2420    9.1760 C   0  0  0  0  0  0  0  0  0  0  0  0
   28.3440   13.0480   10.3040 C   0  0  0  0  0  0  0  0  0  0  0  0
   27.2550   13.7330   10.5050 N   0  0  0  0  0  0  0  0  0  0  0  0
   26.9890   14.7280    9.6020 C   0  0  0  0  0  0  0  0  0  0  0  0
   25.9650   15.6520    9.5000 C   0  0  0  0  0  0  0  0  0  0  0  0
   24.8600   15.7950   10.4250 C   0  0  0  0  0  0  0  0  0  0  0  0
   23.6520   15.1160   10.1720 C   0  0  0  0  0  0  0  0  0  0  0  0
   22.5660   15.1910   11.0650 C   0  0  0  0  0  0  0  0  0  0  0  0
   22.6670   15.9370   12.2370 C   0  0  0  0  0  0  0  0  0  0  0  0
   23.8610   16.5950   12.4680 C   0  0  0  0  0  0  0  0  0  0  0  0
   24.9470   16.5430   11.5910 C   0  0  0  0  0  0  0  0  0  0  0  0
   26.0810   17.3330   12.1580 C   0  0  0  0  0  0  0  0  0  0  0  0
   25.5190   17.8760   13.3900 N   0  0  0  0  0  0  0  0  0  0  0  0
   26.3170   18.5260   14.4190 C   0  0  2  0  0  0  0  0  0  0  0  0
   26.0390   17.9690   15.8120 C   0  0  0  0  0  0  0  0  0  0  0  0
   26.9670   18.6330   16.8170 C   0  0  0  0  0  0  0  0  0  0  0  0
   26.8290   20.1370   16.7750 C   0  0  0  0  0  0  0  0  0  0  0  0
   26.9180   20.8340   17.7810 O   0  0  0  0  0  0  0  0  0  0  0  0
   26.6180   20.6990   15.5420 N   0  0  0  0  0  0  0  0  0  0  0  0
   26.1090   20.0510   14.4380 C   0  0  0  0  0  0  0  0  0  0  0  0
   25.5340   20.6870   13.5590 O   0  0  0  0  0  0  0  0  0  0  0  0
   24.2390   17.4070   13.6300 C   0  0  0  0  0  0  0  0  0  0  0  0
   23.5380   17.6050   14.6030 O   0  0  0  0  0  0  0  0  0  0  0  0
   26.2860   16.4160    8.3610 C   0  0  0  0  0  0  0  0  0  0  0  0
   27.4080   16.0160    7.7620 N   0  0  0  0  0  0  0  0  0  0  0  0
   27.8480   14.9890    8.5250 N   0  0  0  0  0  0  0  0  0  0  0  0
   28.9980   14.2340    8.3330 C   0  0  0  0  0  0  0  0  0  0  0  0
   28.7240   10.6250    6.0360 C   0  0  0  0  0  0  0  0  0  0  0  0
   27.4150   10.5560    5.9050 N   0  0  0  0  0  0  0  0  0  0  0  0
   24.8497    9.5640    8.8806 H   0  0  0  0  0  0  0  0  0  0  0  0
   23.8507    9.4948    7.3893 H   0  0  0  0  0  0  0  0  0  0  0  0
   25.5127    8.8135    7.3893 H   0  0  0  0  0  0  0  0  0  0  0  0
   24.9353   11.2634    6.4098 H   0  0  0  0  0  0  0  0  0  0  0  0
   25.2204   11.6876    8.1530 H   0  0  0  0  0  0  0  0  0  0  0  0
   27.8281   11.5973    9.0446 H   0  0  0  0  0  0  0  0  0  0  0  0
   28.5734   12.2527   11.0284 H   0  0  0  0  0  0  0  0  0  0  0  0
   23.5550   14.5139    9.2566 H   0  0  0  0  0  0  0  0  0  0  0  0
   21.6320   14.6571   10.8357 H   0  0  0  0  0  0  0  0  0  0  0  0
   21.8313   16.0001   12.9495 H   0  0  0  0  0  0  0  0  0  0  0  0
   26.9461   16.6873   12.3691 H   0  0  0  0  0  0  0  0  0  0  0  0
   26.4542   18.1086   11.4730 H   0  0  0  0  0  0  0  0  0  0  0  0
   27.3628   18.3097   14.1553 H   0  0  0  0  0  0  0  0  0  0  0  0
   24.9938   18.1736   16.0870 H   0  0  0  0  0  0  0  0  0  0  0  0
   26.2124   16.8828   15.8143 H   0  0  0  0  0  0  0  0  0  0  0  0
   26.7158   18.2774   17.8272 H   0  0  0  0  0  0  0  0  0  0  0  0
   28.0041   18.3704   16.5610 H   0  0  0  0  0  0  0  0  0  0  0  0
   26.8617   21.6937   15.4316 H   0  0  0  0  0  0  0  0  0  0  0  0
   25.6737   17.2566    8.0024 H   0  0  0  0  0  0  0  0  0  0  0  0
   29.6555   14.4530    7.4788 H   0  0  0  0  0  0  0  0  0  0  0  0
   29.4468   10.4191    5.2328 H   0  0  0  0  0  0  0  0  0  0  0  0
  1  2  1  0
  2  3  1  0
  3  4  2  0
  4  5  1  0
  5  6  1  0
  6  7  2  0
  6  8  2  0
  6  9  1  0
  9 10  1  0
 10 11  1  0
 11 12  2  0
 12 13  1  0
 13 14  2  0
 14 15  1  0
 15 16  2  0
 16 17  1  0
 17 18  2  0
 18 19  1  0
 19 20  2  0
 20 21  1  0
 21 22  1  0
 22 23  1  0
 23 24  1  0
 24 25  1  0
 25 26  1  0
 26 27  2  0
 26 28  1  0
 28 29  1  0
 29 30  2  0
 22 31  1  0
 31 32  2  0
 14 33  1  0
 33 34  2  0
 34 35  1  0
 35 36  1  0
  5 37  1  0
 37 38  2  0
 38  3  1  0
 36 10  2  0
 35 13  1  0
 20 15  1  0
 29 23  1  0
 31 19  1  0
  1 39  1  0
  1 40  1  0
  1 41  1  0
  2 42  1  0
  2 43  1  0
  4 44  1  0
 11 45  1  0
 16 46  1  0
 17 47  1  0
 18 48  1  0
 21 49  1  0
 21 50  1  0
 23 51  1  6
 24 52  1  0
 24 53  1  0
 25 54  1  0
 25 55  1  0
 28 56  1  0
 33 57  1  0
 36 58  1  0
 37 59  1  0
M  END
>  <meeko>  (246) 
{"is_sidechain": [true], "free_energy": -13.57, "intermolecular_energy": 0.0, "internal_energy": -13.57, "cluster_size": 15, "cluster_id": 1, "rank_in_cluster": 1}

>  <_RMSD_MCS_to_ref>  (246) 
1.2885145193852754

$$$$
ligand
     RDKit          3D

 61 66  0  0  0  0  0  0  0  0999 V2000
   24.8540    9.4020    7.6050 C   0  0  0  0  0  0  0  0  0  0  0  0
   25.5230   10.7550    7.4270 C   0  0  0  0  0  0  0  0  0  0  0  0
   24.9730   11.5060    6.2650 C   0  0  0  0  0  0  0  0  0  0  0  0
   25.0670   12.8540    5.9840 C   0  0  0  0  0  0  0  0  0  0  0  0
   24.3720   13.0060    4.8170 N   0  0  0  0  0  0  0  0  0  0  0  0
   24.3880   14.3700    3.8150 S   0  0  0  0  0  6  0  0  0  0  0  0
   23.2980   14.1620    2.8780 O   0  0  0  0  0  0  0  0  0  0  0  0
   25.7630   14.4610    3.3590 O   0  0  0  0  0  0  0  0  0  0  0  0
   24.0750   15.6610    4.7790 O   0  0  0  0  0  0  0  0  0  0  0  0
   24.9940   16.1660    5.5990 C   0  0  0  0  0  0  0  0  0  0  0  0
   26.1640   16.8650    5.3970 C   0  0  0  0  0  0  0  0  0  0  0  0
   26.6670   17.2510    6.6710 C   0  0  0  0  0  0  0  0  0  0  0  0
   27.7800   18.0020    7.0890 C   0  0  0  0  0  0  0  0  0  0  0  0
   27.9610   18.2530    8.4530 C   0  0  0  0  0  0  0  0  0  0  0  0
   27.0410   17.7840    9.3900 C   0  0  0  0  0  0  0  0  0  0  0  0
   25.9150   17.0320    9.0080 C   0  0  0  0  0  0  0  0  0  0  0  0
   24.9180   16.5800    9.9770 C   0  0  0  0  0  0  0  0  0  0  0  0
   23.7220   15.9650    9.5560 C   0  0  0  0  0  0  0  0  0  0  0  0
   22.7430   15.5420   10.4770 C   0  0  0  0  0  0  0  0  0  0  0  0
   22.9320   15.7240   11.8460 C   0  0  0  0  0  0  0  0  0  0  0  0
   24.1140   16.3150   12.2470 C   0  0  0  0  0  0  0  0  0  0  0  0
   25.0960   16.7340   11.3490 C   0  0  0  0  0  0  0  0  0  0  0  0
   26.2390   17.3290   12.1050 C   0  0  0  0  0  0  0  0  0  0  0  0
   25.8230   17.2030   13.4930 N   0  0  0  0  0  0  0  0  0  0  0  0
   26.4470   18.0240   14.5250 C   0  0  2  0  0  0  0  0  0  0  0  0
   25.9330   17.7530   15.9370 C   0  0  0  0  0  0  0  0  0  0  0  0
   26.7070   18.6180   16.9180 C   0  0  0  0  0  0  0  0  0  0  0  0
   26.5880   20.0830   16.5670 C   0  0  0  0  0  0  0  0  0  0  0  0
   26.7110   20.9700   17.4090 O   0  0  0  0  0  0  0  0  0  0  0  0
   26.3970   20.3890   15.2440 N   0  0  0  0  0  0  0  0  0  0  0  0
   26.3100   19.5190   14.1810 C   0  0  0  0  0  0  0  0  0  0  0  0
   26.2080   19.9500   13.0290 O   0  0  0  0  0  0  0  0  0  0  0  0
   24.5490   16.6650   13.6040 C   0  0  0  0  0  0  0  0  0  0  0  0
   23.8640   16.5410   14.6000 O   0  0  0  0  0  0  0  0  0  0  0  0
   25.7800   16.7620    7.6310 C   0  0  0  0  0  0  0  0  0  0  0  0
   24.8410   16.0110    6.9510 N   0  0  0  0  0  0  0  0  0  0  0  0
   23.9400   11.7870    4.4020 C   0  0  0  0  0  0  0  0  0  0  0  0
   24.2800   10.8500    5.2660 N   0  0  0  0  0  0  0  0  0  0  0  0
   24.7464    9.1845    8.6779 H   0  0  0  0  0  0  0  0  0  0  0  0
   23.8606    9.4192    7.1330 H   0  0  0  0  0  0  0  0  0  0  0  0
   25.4708    8.6230    7.1330 H   0  0  0  0  0  0  0  0  0  0  0  0
   25.3673   11.3499    8.3391 H   0  0  0  0  0  0  0  0  0  0  0  0
   26.5930   10.5807    7.2405 H   0  0  0  0  0  0  0  0  0  0  0  0
   25.5841   13.6302    6.5672 H   0  0  0  0  0  0  0  0  0  0  0  0
   26.6270   17.0855    4.4239 H   0  0  0  0  0  0  0  0  0  0  0  0
   28.4998   18.3875    6.3519 H   0  0  0  0  0  0  0  0  0  0  0  0
   28.8376   18.8259    8.7898 H   0  0  0  0  0  0  0  0  0  0  0  0
   27.1997   18.0077   10.4552 H   0  0  0  0  0  0  0  0  0  0  0  0
   23.5482   15.8112    8.4808 H   0  0  0  0  0  0  0  0  0  0  0  0
   21.8217   15.0641   10.1125 H   0  0  0  0  0  0  0  0  0  0  0  0
   22.1716   15.4101   12.5763 H   0  0  0  0  0  0  0  0  0  0  0  0
   27.1679   16.7698   11.9196 H   0  0  0  0  0  0  0  0  0  0  0  0
   26.4549   18.3672   11.8126 H   0  0  0  0  0  0  0  0  0  0  0  0
   27.5089   17.7372   14.5324 H   0  0  0  0  0  0  0  0  0  0  0  0
   24.8622   17.9986   15.9935 H   0  0  0  0  0  0  0  0  0  0  0  0
   26.0726   16.6908   16.1866 H   0  0  0  0  0  0  0  0  0  0  0  0
   26.3073   18.4580   17.9302 H   0  0  0  0  0  0  0  0  0  0  0  0
   27.7686   18.3337   16.8706 H   0  0  0  0  0  0  0  0  0  0  0  0
   26.3079   21.3901   15.0187 H   0  0  0  0  0  0  0  0  0  0  0  0
   24.1268   15.4183    7.3977 H   0  0  0  0  0  0  0  0  0  0  0  0
   23.3822   11.6057    3.4714 H   0  0  0  0  0  0  0  0  0  0  0  0
  1  2  1  0
  2  3  1  0
  3  4  2  0
  4  5  1  0
  5  6  1  0
  6  7  2  0
  6  8  2  0
  6  9  1  0
  9 10  1  0
 10 11  2  0
 11 12  1  0
 12 13  2  0
 13 14  1  0
 14 15  2  0
 15 16  1  0
 16 17  1  0
 17 18  2  0
 18 19  1  0
 19 20  2  0
 20 21  1  0
 21 22  2  0
 22 23  1  0
 23 24  1  0
 24 25  1  0
 25 26  1  0
 26 27  1  0
 27 28  1  0
 28 29  2  0
 28 30  1  0
 30 31  1  0
 31 32  2  0
 24 33  1  0
 33 34  2  0
 16 35  2  0
 35 36  1  0
  5 37  1  0
 37 38  2  0
 38  3  1  0
 36 10  1  0
 35 12  1  0
 22 17  1  0
 31 25  1  0
 33 21  1  0
  1 39  1  0
  1 40  1  0
  1 41  1  0
  2 42  1  0
  2 43  1  0
  4 44  1  0
 11 45  1  0
 13 46  1  0
 14 47  1  0
 15 48  1  0
 18 49  1  0
 19 50  1  0
 20 51  1  0
 23 52  1  0
 23 53  1  0
 25 54  1  1
 26 55  1  0
 26 56  1  0
 27 57  1  0
 27 58  1  0
 30 59  1  0
 36 60  1  0
 37 61  1  0
M  END
>  <meeko>  (247) 
{"is_sidechain": [true], "free_energy": -13.56, "intermolecular_energy": 0.0, "internal_energy": -13.56, "cluster_size": 16, "cluster_id": 1, "rank_in_cluster": 1}

>  <_RMSD_MCS_to_ref>  (247) 
1.0712805940140557

$$$$
ligand
     RDKit          3D

 61 66  0  0  0  0  0  0  0  0999 V2000
   24.8710    9.6160    7.7820 C   0  0  0  0  0  0  0  0  0  0  0  0
   25.4240   10.9650    7.3490 C   0  0  0  0  0  0  0  0  0  0  0  0
   26.8880   11.0740    7.5900 C   0  0  0  0  0  0  0  0  0  0  0  0
   27.5700   11.9600    8.4030 C   0  0  0  0  0  0  0  0  0  0  0  0
   28.8810   11.6100    8.2470 N   0  0  0  0  0  0  0  0  0  0  0  0
   30.1920   12.3710    8.9850 S   0  0  0  0  0  6  0  0  0  0  0  0
   31.3530   11.5420    8.7130 O   0  0  0  0  0  0  0  0  0  0  0  0
   29.7410   12.5680   10.3530 O   0  0  0  0  0  0  0  0  0  0  0  0
   30.4000   13.8480    8.3340 O   0  0  0  0  0  0  0  0  0  0  0  0
   29.5420   14.3020    7.3670 C   0  0  0  0  0  0  0  0  0  0  0  0
   28.3190   14.7940    7.7890 C   0  0  0  0  0  0  0  0  0  0  0  0
   27.3830   15.2410    6.8300 C   0  0  0  0  0  0  0  0  0  0  0  0
   26.1040   15.7750    7.1180 C   0  0  0  0  0  0  0  0  0  0  0  0
   25.5930   15.9800    8.4860 C   0  0  0  0  0  0  0  0  0  0  0  0
   24.4220   15.3160    8.9330 C   0  0  0  0  0  0  0  0  0  0  0  0
   23.9260   15.5030   10.2270 C   0  0  0  0  0  0  0  0  0  0  0  0
   24.6300   16.3510   11.0580 C   0  0  0  0  0  0  0  0  0  0  0  0
   25.7900   17.0050   10.6570 C   0  0  0  0  0  0  0  0  0  0  0  0
   26.2840   16.8280    9.3750 C   0  0  0  0  0  0  0  0  0  0  0  0
   26.3090   17.8500   11.7710 C   0  0  0  0  0  0  0  0  0  0  0  0
   25.3980   17.5350   12.8630 N   0  0  0  0  0  0  0  0  0  0  0  0
   25.3970   18.3140   14.0970 C   0  0  2  0  0  0  0  0  0  0  0  0
   26.0810   19.6740   13.9680 C   0  0  0  0  0  0  0  0  0  0  0  0
   25.9680   20.4210   15.2880 C   0  0  0  0  0  0  0  0  0  0  0  0
   26.5550   19.6180   16.4250 C   0  0  0  0  0  0  0  0  0  0  0  0
   26.9520   20.1430   17.4610 O   0  0  0  0  0  0  0  0  0  0  0  0
   26.5480   18.2530   16.2840 N   0  0  0  0  0  0  0  0  0  0  0  0
   26.0050   17.5120   15.2580 C   0  0  0  0  0  0  0  0  0  0  0  0
   25.9320   16.2860   15.3490 O   0  0  0  0  0  0  0  0  0  0  0  0
   24.3460   16.7320   12.4450 C   0  0  0  0  0  0  0  0  0  0  0  0
   23.3530   16.4020   13.0630 O   0  0  0  0  0  0  0  0  0  0  0  0
   25.2210   16.1470    6.1530 N   0  0  0  0  0  0  0  0  0  0  0  0
   25.6030   16.0270    4.8670 C   0  0  0  0  0  0  0  0  0  0  0  0
   26.8340   15.5380    4.4780 C   0  0  0  0  0  0  0  0  0  0  0  0
   27.7340   15.1350    5.4710 C   0  0  0  0  0  0  0  0  0  0  0  0
   28.9910   14.6130    5.1610 C   0  0  0  0  0  0  0  0  0  0  0  0
   29.8940   14.1940    6.0770 N   0  0  0  0  0  0  0  0  0  0  0  0
   28.9690   10.5710    7.3790 C   0  0  0  0  0  0  0  0  0  0  0  0
   27.7710   10.2170    6.9600 N   0  0  0  0  0  0  0  0  0  0  0  0
   24.8497    9.5640    8.8806 H   0  0  0  0  0  0  0  0  0  0  0  0
   23.8507    9.4948    7.3893 H   0  0  0  0  0  0  0  0  0  0  0  0
   25.5127    8.8135    7.3893 H   0  0  0  0  0  0  0  0  0  0  0  0
   25.2306   11.0991    6.2745 H   0  0  0  0  0  0  0  0  0  0  0  0
   24.9241   11.7427    7.9450 H   0  0  0  0  0  0  0  0  0  0  0  0
   27.1532   12.7616    9.0305 H   0  0  0  0  0  0  0  0  0  0  0  0
   28.0781   14.8365    8.8614 H   0  0  0  0  0  0  0  0  0  0  0  0
   23.8924   14.6390    8.2466 H   0  0  0  0  0  0  0  0  0  0  0  0
   23.0121   14.9950   10.5687 H   0  0  0  0  0  0  0  0  0  0  0  0
   27.2025   17.3419    9.0553 H   0  0  0  0  0  0  0  0  0  0  0  0
   27.3437   17.5777   12.0265 H   0  0  0  0  0  0  0  0  0  0  0  0
   26.3431   18.9219   11.5264 H   0  0  0  0  0  0  0  0  0  0  0  0
   24.3391   18.5215   14.3156 H   0  0  0  0  0  0  0  0  0  0  0  0
   27.1423   19.5292   13.7175 H   0  0  0  0  0  0  0  0  0  0  0  0
   25.5946   20.2569   13.1720 H   0  0  0  0  0  0  0  0  0  0  0  0
   26.5086   21.3756   15.2070 H   0  0  0  0  0  0  0  0  0  0  0  0
   24.9024   20.5940   15.4990 H   0  0  0  0  0  0  0  0  0  0  0  0
   27.0041   17.7179   17.0367 H   0  0  0  0  0  0  0  0  0  0  0  0
   24.8952   16.3356    4.0836 H   0  0  0  0  0  0  0  0  0  0  0  0
   27.1010   15.4668    3.4133 H   0  0  0  0  0  0  0  0  0  0  0  0
   29.2662   14.5371    4.0987 H   0  0  0  0  0  0  0  0  0  0  0  0
   29.9089   10.0913    7.0685 H   0  0  0  0  0  0  0  0  0  0  0  0
  1  2  1  0
  2  3  1  0
  3  4  2  0
  4  5  1  0
  5  6  1  0
  6  7  2  0
  6  8  2  0
  6  9  1  0
  9 10  1  0
 10 11  2  0
 11 12  1  0
 12 13  2  0
 13 14  1  0
 14 15  2  0
 15 16  1  0
 16 17  2  0
 17 18  1  0
 18 19  2  0
 18 20  1  0
 20 21  1  0
 21 22  1  0
 22 23  1  0
 23 24  1  0
 24 25  1  0
 25 26  2  0
 25 27  1  0
 27 28  1  0
 28 29  2  0
 21 30  1  0
 30 31  2  0
 13 32  1  0
 32 33  2  0
 33 34  1  0
 34 35  2  0
 35 36  1  0
 36 37  2  0
  5 38  1  0
 38 39  2  0
 39  3  1  0
 37 10  1  0
 35 12  1  0
 19 14  1  0
 28 22  1  0
 30 17  1  0
  1 40  1  0
  1 41  1  0
  1 42  1  0
  2 43  1  0
  2 44  1  0
  4 45  1  0
 11 46  1  0
 15 47  1  0
 16 48  1  0
 19 49  1  0
 20 50  1  0
 20 51  1  0
 22 52  1  1
 23 53  1  0
 23 54  1  0
 24 55  1  0
 24 56  1  0
 27 57  1  0
 33 58  1  0
 34 59  1  0
 36 60  1  0
 38 61  1  0
M  END
>  <meeko>  (248) 
{"is_sidechain": [true], "free_energy": -13.56, "intermolecular_energy": 0.0, "internal_energy": -13.56, "cluster_size": 19, "cluster_id": 1, "rank_in_cluster": 1}

>  <_RMSD_MCS_to_ref>  (248) 
1.6836846185485097

$$$$
ligand
     RDKit          3D

 62 66  0  0  0  0  0  0  0  0999 V2000
   24.8540    9.4020    7.6050 C   0  0  0  0  0  0  0  0  0  0  0  0
   25.5230   10.7550    7.4270 C   0  0  0  0  0  0  0  0  0  0  0  0
   25.0800   11.4420    6.1840 C   0  0  0  0  0  0  0  0  0  0  0  0
   25.5700   12.5980    5.6080 C   0  0  0  0  0  0  0  0  0  0  0  0
   24.7910   12.7760    4.5010 N   0  0  0  0  0  0  0  0  0  0  0  0
   25.0470   13.9190    3.2960 S   0  0  0  0  0  6  0  0  0  0  0  0
   26.3070   13.5690    2.6640 O   0  0  0  0  0  0  0  0  0  0  0  0
   23.8060   13.9710    2.5490 O   0  0  0  0  0  0  0  0  0  0  0  0
   25.2720   15.4320    4.1850 C   0  0  0  0  0  0  0  0  0  0  0  0
   24.3400   16.4610    4.0510 C   0  0  0  0  0  0  0  0  0  0  0  0
   24.5450   17.6590    4.7320 C   0  0  0  0  0  0  0  0  0  0  0  0
   25.6850   17.8340    5.5250 C   0  0  0  0  0  0  0  0  0  0  0  0
   26.6310   16.8140    5.6310 C   0  0  0  0  0  0  0  0  0  0  0  0
   27.7970   16.8840    6.3470 O   0  0  0  0  0  0  0  0  0  0  0  0
   27.7940   17.6830    7.5410 C   0  0  0  0  0  0  0  0  0  0  0  0
   26.7220   17.2690    8.4570 C   0  0  0  0  0  0  0  0  0  0  0  0
   25.8510   16.8090    9.1440 C   0  0  0  0  0  0  0  0  0  0  0  0
   24.8520   16.3990   10.0770 C   0  0  0  0  0  0  0  0  0  0  0  0
   23.7050   15.7100    9.6670 C   0  0  0  0  0  0  0  0  0  0  0  0
   22.7000   15.3700   10.5950 C   0  0  0  0  0  0  0  0  0  0  0  0
   22.8250   15.7220   11.9420 C   0  0  0  0  0  0  0  0  0  0  0  0
   23.9720   16.3950   12.3190 C   0  0  0  0  0  0  0  0  0  0  0  0
   24.9790   16.7250   11.4160 C   0  0  0  0  0  0  0  0  0  0  0  0
   26.0690   17.4570   12.1190 C   0  0  0  0  0  0  0  0  0  0  0  0
   25.6340   17.4370   13.5080 N   0  0  0  0  0  0  0  0  0  0  0  0
   26.3230   18.2480   14.5080 C   0  0  2  0  0  0  0  0  0  0  0  0
   25.9480   17.9320   15.9530 C   0  0  0  0  0  0  0  0  0  0  0  0
   26.8370   18.7430   16.8840 C   0  0  0  0  0  0  0  0  0  0  0  0
   26.7430   20.2230   16.5920 C   0  0  0  0  0  0  0  0  0  0  0  0
   27.0340   21.0730   17.4300 O   0  0  0  0  0  0  0  0  0  0  0  0
   26.3770   20.5800   15.3180 N   0  0  0  0  0  0  0  0  0  0  0  0
   26.1520   19.7530   14.2420 C   0  0  0  0  0  0  0  0  0  0  0  0
   25.9380   20.2300   13.1280 O   0  0  0  0  0  0  0  0  0  0  0  0
   24.3600   16.9080   13.6400 C   0  0  0  0  0  0  0  0  0  0  0  0
   23.6530   16.8610   14.6280 O   0  0  0  0  0  0  0  0  0  0  0  0
   26.4140   15.6010    4.9740 C   0  0  0  0  0  0  0  0  0  0  0  0
   23.9080   11.7490    4.4060 C   0  0  0  0  0  0  0  0  0  0  0  0
   24.0510   10.9230    5.4210 N   0  0  0  0  0  0  0  0  0  0  0  0
   24.7464    9.1845    8.6779 H   0  0  0  0  0  0  0  0  0  0  0  0
   23.8606    9.4192    7.1330 H   0  0  0  0  0  0  0  0  0  0  0  0
   25.4708    8.6230    7.1330 H   0  0  0  0  0  0  0  0  0  0  0  0
   25.2741   11.3895    8.2904 H   0  0  0  0  0  0  0  0  0  0  0  0
   26.6077   10.5881    7.3522 H   0  0  0  0  0  0  0  0  0  0  0  0
   26.3982   13.2303    5.9605 H   0  0  0  0  0  0  0  0  0  0  0  0
   23.4527   16.3281    3.4145 H   0  0  0  0  0  0  0  0  0  0  0  0
   23.8078   18.4708    4.6461 H   0  0  0  0  0  0  0  0  0  0  0  0
   25.8357   18.7794    6.0668 H   0  0  0  0  0  0  0  0  0  0  0  0
   28.7630   17.5713    8.0495 H   0  0  0  0  0  0  0  0  0  0  0  0
   27.6226   18.7318    7.2569 H   0  0  0  0  0  0  0  0  0  0  0  0
   23.5865   15.4309    8.6096 H   0  0  0  0  0  0  0  0  0  0  0  0
   21.8084   14.8222   10.2558 H   0  0  0  0  0  0  0  0  0  0  0  0
   22.0416   15.4733   12.6730 H   0  0  0  0  0  0  0  0  0  0  0  0
   27.0330   16.9410   11.9992 H   0  0  0  0  0  0  0  0  0  0  0  0
   26.2299   18.4732   11.7297 H   0  0  0  0  0  0  0  0  0  0  0  0
   27.3817   17.9719   14.3941 H   0  0  0  0  0  0  0  0  0  0  0  0
   24.8943   18.1957   16.1267 H   0  0  0  0  0  0  0  0  0  0  0  0
   26.0881   16.8584   16.1471 H   0  0  0  0  0  0  0  0  0  0  0  0
   26.5240   18.5634   17.9231 H   0  0  0  0  0  0  0  0  0  0  0  0
   27.8789   18.4265   16.7279 H   0  0  0  0  0  0  0  0  0  0  0  0
   26.2563   21.5885   15.1472 H   0  0  0  0  0  0  0  0  0  0  0  0
   27.1395   14.7806    5.0769 H   0  0  0  0  0  0  0  0  0  0  0  0
   23.1758   11.6246    3.5946 H   0  0  0  0  0  0  0  0  0  0  0  0
  1  2  1  0
  2  3  1  0
  3  4  2  0
  4  5  1  0
  5  6  1  0
  6  7  2  0
  6  8  2  0
  6  9  1  0
  9 10  2  0
 10 11  1  0
 11 12  2  0
 12 13  1  0
 13 14  1  0
 14 15  1  0
 15 16  1  0
 16 17  3  0
 17 18  1  0
 18 19  2  0
 19 20  1  0
 20 21  2  0
 21 22  1  0
 22 23  2  0
 23 24  1  0
 24 25  1  0
 25 26  1  0
 26 27  1  0
 27 28  1  0
 28 29  1  0
 29 30  2  0
 29 31  1  0
 31 32  1  0
 32 33  2  0
 25 34  1  0
 34 35  2  0
 13 36  2  0
  5 37  1  0
 37 38  2  0
 38  3  1  0
 36  9  1  0
 23 18  1  0
 32 26  1  0
 34 22  1  0
  1 39  1  0
  1 40  1  0
  1 41  1  0
  2 42  1  0
  2 43  1  0
  4 44  1  0
 10 45  1  0
 11 46  1  0
 12 47  1  0
 15 48  1  0
 15 49  1  0
 19 50  1  0
 20 51  1  0
 21 52  1  0
 24 53  1  0
 24 54  1  0
 26 55  1  1
 27 56  1  0
 27 57  1  0
 28 58  1  0
 28 59  1  0
 31 60  1  0
 36 61  1  0
 37 62  1  0
M  END
>  <meeko>  (249) 
{"is_sidechain": [true], "free_energy": -13.55, "intermolecular_energy": 0.0, "internal_energy": -13.55, "cluster_size": 1, "cluster_id": 2, "rank_in_cluster": 1}

>  <_RMSD_MCS_to_ref>  (249) 
0.9165933910106719

$$$$
ligand
     RDKit          3D

 62 67  0  0  0  0  0  0  0  0999 V2000
   24.8710    9.6160    7.7820 C   0  0  0  0  0  0  0  0  0  0  0  0
   25.4240   10.9650    7.3490 C   0  0  0  0  0  0  0  0  0  0  0  0
   26.8940   10.9180    7.1220 C   0  0  0  0  0  0  0  0  0  0  0  0
   27.5850   10.7380    5.9400 C   0  0  0  0  0  0  0  0  0  0  0  0
   28.9000   10.8150    6.3070 N   0  0  0  0  0  0  0  0  0  0  0  0
   30.2000   10.9720    5.2390 S   0  0  0  0  0  6  0  0  0  0  0  0
   29.7160   10.3810    4.0060 O   0  0  0  0  0  0  0  0  0  0  0  0
   31.3420   10.4130    5.9410 O   0  0  0  0  0  0  0  0  0  0  0  0
   30.4510   12.5680    4.9730 O   0  0  0  0  0  0  0  0  0  0  0  0
   29.3750   13.4120    4.9350 C   0  0  0  0  0  0  0  0  0  0  0  0
   28.9020   13.9170    3.7320 C   0  0  0  0  0  0  0  0  0  0  0  0
   27.8160   14.7890    3.7450 C   0  0  0  0  0  0  0  0  0  0  0  0
   27.2040   15.1430    4.9610 C   0  0  0  0  0  0  0  0  0  0  0  0
   26.1250   16.0280    5.0150 C   0  0  0  0  0  0  0  0  0  0  0  0
   25.5560   16.3500    6.2440 C   0  0  0  0  0  0  0  0  0  0  0  0
   26.0720   15.7750    7.4030 C   0  0  0  0  0  0  0  0  0  0  0  0
   25.5390   16.0640    8.7520 C   0  0  0  0  0  0  0  0  0  0  0  0
   24.3020   15.5260    9.1980 C   0  0  0  0  0  0  0  0  0  0  0  0
   23.7910   15.8030   10.4720 C   0  0  0  0  0  0  0  0  0  0  0  0
   24.5410   16.6190   11.2920 C   0  0  0  0  0  0  0  0  0  0  0  0
   25.7580   17.1610   10.8980 C   0  0  0  0  0  0  0  0  0  0  0  0
   26.2660   16.8920    9.6370 C   0  0  0  0  0  0  0  0  0  0  0  0
   26.3160   18.0100   11.9890 C   0  0  0  0  0  0  0  0  0  0  0  0
   25.3630   17.8070   13.0710 N   0  0  0  0  0  0  0  0  0  0  0  0
   25.4030   18.6240   14.2800 C   0  0  2  0  0  0  0  0  0  0  0  0
   26.0160   20.0070   14.0680 C   0  0  0  0  0  0  0  0  0  0  0  0
   25.9510   20.7920   15.3690 C   0  0  0  0  0  0  0  0  0  0  0  0
   26.6430   20.0510   16.4900 C   0  0  0  0  0  0  0  0  0  0  0  0
   27.0790   20.6270   17.4830 O   0  0  0  0  0  0  0  0  0  0  0  0
   26.6880   18.6840   16.3900 N   0  0  0  0  0  0  0  0  0  0  0  0
   26.1150   17.8860   15.4250 C   0  0  0  0  0  0  0  0  0  0  0  0
   26.1000   16.6640   15.5590 O   0  0  0  0  0  0  0  0  0  0  0  0
   24.2600   17.0740   12.6570 C   0  0  0  0  0  0  0  0  0  0  0  0
   23.2320   16.8450   13.2640 O   0  0  0  0  0  0  0  0  0  0  0  0
   27.1220   14.9130    7.3630 N   0  0  0  0  0  0  0  0  0  0  0  0
   27.6710   14.6060    6.1770 C   0  0  0  0  0  0  0  0  0  0  0  0
   28.7480   13.7320    6.1390 C   0  0  0  0  0  0  0  0  0  0  0  0
   28.9760   11.0590    7.6400 C   0  0  0  0  0  0  0  0  0  0  0  0
   27.7720   11.1050    8.1710 N   0  0  0  0  0  0  0  0  0  0  0  0
   24.8497    9.5640    8.8806 H   0  0  0  0  0  0  0  0  0  0  0  0
   23.8507    9.4948    7.3893 H   0  0  0  0  0  0  0  0  0  0  0  0
   25.5127    8.8135    7.3893 H   0  0  0  0  0  0  0  0  0  0  0  0
   24.9298   11.2679    6.4141 H   0  0  0  0  0  0  0  0  0  0  0  0
   25.2276   11.6873    8.1550 H   0  0  0  0  0  0  0  0  0  0  0  0
   27.1723   10.5710    4.9341 H   0  0  0  0  0  0  0  0  0  0  0  0
   29.3779   13.6327    2.7819 H   0  0  0  0  0  0  0  0  0  0  0  0
   27.4351   15.2029    2.7997 H   0  0  0  0  0  0  0  0  0  0  0  0
   25.7261   16.4691    4.0896 H   0  0  0  0  0  0  0  0  0  0  0  0
   24.7092   17.0500    6.2992 H   0  0  0  0  0  0  0  0  0  0  0  0
   23.7292   14.8730    8.5231 H   0  0  0  0  0  0  0  0  0  0  0  0
   22.8292   15.3860   10.8053 H   0  0  0  0  0  0  0  0  0  0  0  0
   27.2302   17.3208    9.3265 H   0  0  0  0  0  0  0  0  0  0  0  0
   27.3224   17.6733   12.2784 H   0  0  0  0  0  0  0  0  0  0  0  0
   26.4344   19.0657   11.7037 H   0  0  0  0  0  0  0  0  0  0  0  0
   24.3524   18.7928   14.5588 H   0  0  0  0  0  0  0  0  0  0  0  0
   27.0653   19.8996   13.7560 H   0  0  0  0  0  0  0  0  0  0  0  0
   25.4556   20.5420   13.2871 H   0  0  0  0  0  0  0  0  0  0  0  0
   26.4424   21.7656   15.2255 H   0  0  0  0  0  0  0  0  0  0  0  0
   24.8939   20.9274   15.6415 H   0  0  0  0  0  0  0  0  0  0  0  0
   27.2150   18.1941   17.1270 H   0  0  0  0  0  0  0  0  0  0  0  0
   29.1136   13.2838    7.0746 H   0  0  0  0  0  0  0  0  0  0  0  0
   29.9130   11.1989    8.1989 H   0  0  0  0  0  0  0  0  0  0  0  0
  1  2  1  0
  2  3  1  0
  3  4  2  0
  4  5  1  0
  5  6  1  0
  6  7  2  0
  6  8  2  0
  6  9  1  0
  9 10  1  0
 10 11  2  0
 11 12  1  0
 12 13  2  0
 13 14  1  0
 14 15  2  0
 15 16  1  0
 16 17  1  0
 17 18  2  0
 18 19  1  0
 19 20  2  0
 20 21  1  0
 21 22  2  0
 21 23  1  0
 23 24  1  0
 24 25  1  0
 25 26  1  0
 26 27  1  0
 27 28  1  0
 28 29  2  0
 28 30  1  0
 30 31  1  0
 31 32  2  0
 24 33  1  0
 33 34  2  0
 16 35  2  0
 35 36  1  0
 36 37  2  0
  5 38  1  0
 38 39  2  0
 39  3  1  0
 37 10  1  0
 36 13  1  0
 22 17  1  0
 31 25  1  0
 33 20  1  0
  1 40  1  0
  1 41  1  0
  1 42  1  0
  2 43  1  0
  2 44  1  0
  4 45  1  0
 11 46  1  0
 12 47  1  0
 14 48  1  0
 15 49  1  0
 18 50  1  0
 19 51  1  0
 22 52  1  0
 23 53  1  0
 23 54  1  0
 25 55  1  1
 26 56  1  0
 26 57  1  0
 27 58  1  0
 27 59  1  0
 30 60  1  0
 37 61  1  0
 38 62  1  0
M  END
>  <meeko>  (250) 
{"is_sidechain": [true], "free_energy": -13.55, "intermolecular_energy": 0.0, "internal_energy": -13.55, "cluster_size": 17, "cluster_id": 1, "rank_in_cluster": 1}

>  <_RMSD_MCS_to_ref>  (250) 
1.6497774650571897

$$$$
ligand
     RDKit          3D

 61 66  0  0  0  0  0  0  0  0999 V2000
   24.8710    9.6160    7.7820 C   0  0  0  0  0  0  0  0  0  0  0  0
   25.4240   10.9650    7.3490 C   0  0  0  0  0  0  0  0  0  0  0  0
   26.8030   10.8560    6.7990 C   0  0  0  0  0  0  0  0  0  0  0  0
   28.0050   11.1790    7.3980 C   0  0  0  0  0  0  0  0  0  0  0  0
   28.9390   10.8800    6.4500 N   0  0  0  0  0  0  0  0  0  0  0  0
   30.6040   11.0990    6.6080 S   0  0  0  0  0  6  0  0  0  0  0  0
   31.1850   10.6930    5.3390 O   0  0  0  0  0  0  0  0  0  0  0  0
   30.9220   10.3690    7.8240 O   0  0  0  0  0  0  0  0  0  0  0  0
   30.9170   12.6630    6.8860 O   0  0  0  0  0  0  0  0  0  0  0  0
   29.8680   13.5230    7.0420 C   0  0  0  0  0  0  0  0  0  0  0  0
   29.4300   13.6620    8.2970 N   0  0  0  0  0  0  0  0  0  0  0  0
   28.3550   14.4570    8.4540 C   0  0  0  0  0  0  0  0  0  0  0  0
   27.6850   15.1000    7.4140 C   0  0  0  0  0  0  0  0  0  0  0  0
   26.5470   15.9450    7.5610 C   0  0  0  0  0  0  0  0  0  0  0  0
   25.9590   16.2460    8.8740 C   0  0  0  0  0  0  0  0  0  0  0  0
   24.6660   15.7680    9.2020 C   0  0  0  0  0  0  0  0  0  0  0  0
   24.0850   16.0400   10.4430 C   0  0  0  0  0  0  0  0  0  0  0  0
   24.8230   16.7910   11.3360 C   0  0  0  0  0  0  0  0  0  0  0  0
   26.0940   17.2780   11.0410 C   0  0  0  0  0  0  0  0  0  0  0  0
   26.6750   17.0160    9.8120 C   0  0  0  0  0  0  0  0  0  0  0  0
   26.6120   18.0750   12.1910 C   0  0  0  0  0  0  0  0  0  0  0  0
   25.5750   17.8960   13.1980 N   0  0  0  0  0  0  0  0  0  0  0  0
   25.5640   18.6900   14.4230 C   0  0  2  0  0  0  0  0  0  0  0  0
   26.2630   20.0420   14.2880 C   0  0  0  0  0  0  0  0  0  0  0  0
   26.1380   20.8070   15.5960 C   0  0  0  0  0  0  0  0  0  0  0  0
   26.7030   20.0110   16.7510 C   0  0  0  0  0  0  0  0  0  0  0  0
   27.0930   20.5460   17.7840 O   0  0  0  0  0  0  0  0  0  0  0  0
   26.6820   18.6450   16.6270 N   0  0  0  0  0  0  0  0  0  0  0  0
   26.1470   17.8970   15.6030 C   0  0  0  0  0  0  0  0  0  0  0  0
   26.0620   16.6740   15.7060 O   0  0  0  0  0  0  0  0  0  0  0  0
   24.4680   17.2320   12.6900 C   0  0  0  0  0  0  0  0  0  0  0  0
   23.3890   17.0430   13.2150 O   0  0  0  0  0  0  0  0  0  0  0  0
   25.9710   16.5080    6.4140 C   0  0  0  0  0  0  0  0  0  0  0  0
   26.5050   16.2460    5.1570 C   0  0  0  0  0  0  0  0  0  0  0  0
   27.6230   15.4200    5.0380 C   0  0  0  0  0  0  0  0  0  0  0  0
   28.2270   14.8450    6.1470 C   0  0  0  0  0  0  0  0  0  0  0  0
   29.3000   14.0650    5.9600 N   0  0  0  0  0  0  0  0  0  0  0  0
   28.3190   10.3920    5.3460 C   0  0  0  0  0  0  0  0  0  0  0  0
   27.0130   10.3730    5.5210 N   0  0  0  0  0  0  0  0  0  0  0  0
   24.8497    9.5640    8.8806 H   0  0  0  0  0  0  0  0  0  0  0  0
   23.8507    9.4948    7.3893 H   0  0  0  0  0  0  0  0  0  0  0  0
   25.5127    8.8135    7.3893 H   0  0  0  0  0  0  0  0  0  0  0  0
   24.7658   11.3859    6.5746 H   0  0  0  0  0  0  0  0  0  0  0  0
   25.4640   11.6145    8.2359 H   0  0  0  0  0  0  0  0  0  0  0  0
   28.1708   11.5841    8.4072 H   0  0  0  0  0  0  0  0  0  0  0  0
   27.9782   14.6103    9.4760 H   0  0  0  0  0  0  0  0  0  0  0  0
   24.1088   15.1710    8.4650 H   0  0  0  0  0  0  0  0  0  0  0  0
   23.0807   15.6709   10.6982 H   0  0  0  0  0  0  0  0  0  0  0  0
   27.6769   17.4017    9.5723 H   0  0  0  0  0  0  0  0  0  0  0  0
   27.5778   17.6829   12.5423 H   0  0  0  0  0  0  0  0  0  0  0  0
   26.8005   19.1296   11.9414 H   0  0  0  0  0  0  0  0  0  0  0  0
   24.5049   18.9097   14.6231 H   0  0  0  0  0  0  0  0  0  0  0  0
   27.3264   19.8839   14.0553 H   0  0  0  0  0  0  0  0  0  0  0  0
   25.7936   20.6194   13.4779 H   0  0  0  0  0  0  0  0  0  0  0  0
   26.6882   21.7557   15.5108 H   0  0  0  0  0  0  0  0  0  0  0  0
   25.0714   20.9934   15.7900 H   0  0  0  0  0  0  0  0  0  0  0  0
   27.1200   18.1145   17.3936 H   0  0  0  0  0  0  0  0  0  0  0  0
   25.0910   17.1612    6.5087 H   0  0  0  0  0  0  0  0  0  0  0  0
   26.0476   16.6884    4.2598 H   0  0  0  0  0  0  0  0  0  0  0  0
   28.0366   15.2193    4.0387 H   0  0  0  0  0  0  0  0  0  0  0  0
   28.8343   10.0590    4.4330 H   0  0  0  0  0  0  0  0  0  0  0  0
  1  2  1  0
  2  3  1  0
  3  4  2  0
  4  5  1  0
  5  6  1  0
  6  7  2  0
  6  8  2  0
  6  9  1  0
  9 10  1  0
 10 11  2  0
 11 12  1  0
 12 13  2  0
 13 14  1  0
 14 15  1  0
 15 16  2  0
 16 17  1  0
 17 18  2  0
 18 19  1  0
 19 20  2  0
 19 21  1  0
 21 22  1  0
 22 23  1  0
 23 24  1  0
 24 25  1  0
 25 26  1  0
 26 27  2  0
 26 28  1  0
 28 29  1  0
 29 30  2  0
 22 31  1  0
 31 32  2  0
 14 33  2  0
 33 34  1  0
 34 35  2  0
 35 36  1  0
 36 37  2  0
  5 38  1  0
 38 39  2  0
 39  3  1  0
 37 10  1  0
 36 13  1  0
 20 15  1  0
 29 23  1  0
 31 18  1  0
  1 40  1  0
  1 41  1  0
  1 42  1  0
  2 43  1  0
  2 44  1  0
  4 45  1  0
 12 46  1  0
 16 47  1  0
 17 48  1  0
 20 49  1  0
 21 50  1  0
 21 51  1  0
 23 52  1  1
 24 53  1  0
 24 54  1  0
 25 55  1  0
 25 56  1  0
 28 57  1  0
 33 58  1  0
 34 59  1  0
 35 60  1  0
 38 61  1  0
M  END
>  <meeko>  (251) 
{"is_sidechain": [true], "free_energy": -13.55, "intermolecular_energy": 0.0, "internal_energy": -13.55, "cluster_size": 20, "cluster_id": 1, "rank_in_cluster": 1}

>  <_RMSD_MCS_to_ref>  (251) 
1.7590414704425938

$$$$
ligand
     RDKit          3D

 62 67  0  0  0  0  0  0  0  0999 V2000
   24.8710    9.6170    7.7820 C   0  0  0  0  0  0  0  0  0  0  0  0
   25.4240   10.9640    7.3490 C   0  0  0  0  0  0  0  0  0  0  0  0
   26.8150   11.1830    7.8290 C   0  0  0  0  0  0  0  0  0  0  0  0
   27.2690   12.0250    8.8260 C   0  0  0  0  0  0  0  0  0  0  0  0
   28.6190   11.8170    8.8550 N   0  0  0  0  0  0  0  0  0  0  0  0
   29.7510   12.7820    9.6520 S   0  0  0  0  0  6  0  0  0  0  0  0
   31.0330   12.2850    9.1900 O   0  0  0  0  0  0  0  0  0  0  0  0
   29.3690   12.7210   11.0490 O   0  0  0  0  0  0  0  0  0  0  0  0
   29.5340   14.2940    9.0570 O   0  0  0  0  0  0  0  0  0  0  0  0
   28.9150   14.4180    7.8370 C   0  0  0  0  0  0  0  0  0  0  0  0
   27.6310   14.9740    7.7600 C   0  0  0  0  0  0  0  0  0  0  0  0
   26.8620   15.4160    8.9370 C   0  0  0  0  0  0  0  0  0  0  0  0
   25.6350   14.7790    9.2570 C   0  0  0  0  0  0  0  0  0  0  0  0
   24.8670   15.1700   10.3570 C   0  0  0  0  0  0  0  0  0  0  0  0
   25.3540   16.2050   11.1300 C   0  0  0  0  0  0  0  0  0  0  0  0
   26.5600   16.8450   10.8570 C   0  0  0  0  0  0  0  0  0  0  0  0
   27.3250   16.4600    9.7660 C   0  0  0  0  0  0  0  0  0  0  0  0
   26.8210   17.9040   11.8790 C   0  0  0  0  0  0  0  0  0  0  0  0
   25.6330   17.8250   12.7210 N   0  0  0  0  0  0  0  0  0  0  0  0
   25.4820   18.5310   13.9890 C   0  0  1  0  0  0  0  0  0  0  0  0
   26.4010   17.9390   15.0570 C   0  0  0  0  0  0  0  0  0  0  0  0
   26.1400   18.6160   16.3930 C   0  0  0  0  0  0  0  0  0  0  0  0
   26.3080   20.1120   16.2890 C   0  0  0  0  0  0  0  0  0  0  0  0
   26.7030   20.7970   17.2280 O   0  0  0  0  0  0  0  0  0  0  0  0
   25.9600   20.6880   15.0930 N   0  0  0  0  0  0  0  0  0  0  0  0
   25.7010   20.0490   13.9020 C   0  0  0  0  0  0  0  0  0  0  0  0
   25.6210   20.6980   12.8610 O   0  0  0  0  0  0  0  0  0  0  0  0
   24.7760   16.8080   12.3340 C   0  0  0  0  0  0  0  0  0  0  0  0
   23.7530   16.4430   12.8800 O   0  0  0  0  0  0  0  0  0  0  0  0
   26.9940   15.1450    6.5770 N   0  0  0  0  0  0  0  0  0  0  0  0
   27.6340   14.7340    5.4580 C   0  0  0  0  0  0  0  0  0  0  0  0
   28.8960   14.1370    5.4370 C   0  0  0  0  0  0  0  0  0  0  0  0
   29.4980   13.7150    4.2390 C   0  0  0  0  0  0  0  0  0  0  0  0
   30.7560   13.1150    4.2520 C   0  0  0  0  0  0  0  0  0  0  0  0
   31.4210   12.9290    5.4580 C   0  0  0  0  0  0  0  0  0  0  0  0
   30.8310   13.3460    6.6530 C   0  0  0  0  0  0  0  0  0  0  0  0
   29.5610   13.9640    6.6670 C   0  0  0  0  0  0  0  0  0  0  0  0
   28.9520   10.9380    7.8760 C   0  0  0  0  0  0  0  0  0  0  0  0
   27.8760   10.5170    7.2450 N   0  0  0  0  0  0  0  0  0  0  0  0
   24.8498    9.5653    8.8806 H   0  0  0  0  0  0  0  0  0  0  0  0
   23.8505    9.4962    7.3895 H   0  0  0  0  0  0  0  0  0  0  0  0
   25.5122    8.8140    7.3895 H   0  0  0  0  0  0  0  0  0  0  0  0
   25.4170   11.0127    6.2501 H   0  0  0  0  0  0  0  0  0  0  0  0
   24.7885   11.7464    7.7894 H   0  0  0  0  0  0  0  0  0  0  0  0
   26.6777   12.7078    9.4539 H   0  0  0  0  0  0  0  0  0  0  0  0
   25.2786   13.9548    8.6217 H   0  0  0  0  0  0  0  0  0  0  0  0
   23.9148   14.6742   10.5968 H   0  0  0  0  0  0  0  0  0  0  0  0
   28.2798   16.9617    9.5498 H   0  0  0  0  0  0  0  0  0  0  0  0
   27.7324   17.6855   12.4549 H   0  0  0  0  0  0  0  0  0  0  0  0
   26.9878   18.9014   11.4462 H   0  0  0  0  0  0  0  0  0  0  0  0
   24.4287   18.3856   14.2709 H   0  0  0  0  0  0  0  0  0  0  0  0
   26.2059   16.8604   15.1498 H   0  0  0  0  0  0  0  0  0  0  0  0
   27.4491   18.1020   14.7656 H   0  0  0  0  0  0  0  0  0  0  0  0
   25.1120   18.3919   16.7140 H   0  0  0  0  0  0  0  0  0  0  0  0
   26.8670   18.2340   17.1248 H   0  0  0  0  0  0  0  0  0  0  0  0
   25.8840   21.7152   15.0859 H   0  0  0  0  0  0  0  0  0  0  0  0
   27.1230   14.8808    4.4950 H   0  0  0  0  0  0  0  0  0  0  0  0
   28.9722   13.8594    3.2837 H   0  0  0  0  0  0  0  0  0  0  0  0
   31.2213   12.7895    3.3099 H   0  0  0  0  0  0  0  0  0  0  0  0
   32.4126   12.4531    5.4713 H   0  0  0  0  0  0  0  0  0  0  0  0
   31.3656   13.1902    7.6017 H   0  0  0  0  0  0  0  0  0  0  0  0
   29.9791   10.6211    7.6421 H   0  0  0  0  0  0  0  0  0  0  0  0
  1  2  1  0
  2  3  1  0
  3  4  2  0
  4  5  1  0
  5  6  1  0
  6  7  2  0
  6  8  2  0
  6  9  1  0
  9 10  1  0
 10 11  1  0
 11 12  1  0
 12 13  2  0
 13 14  1  0
 14 15  2  0
 15 16  1  0
 16 17  2  0
 16 18  1  0
 18 19  1  0
 19 20  1  0
 20 21  1  0
 21 22  1  0
 22 23  1  0
 23 24  2  0
 23 25  1  0
 25 26  1  0
 26 27  2  0
 19 28  1  0
 28 29  2  0
 11 30  2  0
 30 31  1  0
 31 32  2  0
 32 33  1  0
 33 34  2  0
 34 35  1  0
 35 36  2  0
 36 37  1  0
  5 38  1  0
 38 39  2  0
 39  3  1  0
 37 10  2  0
 17 12  1  0
 26 20  1  0
 37 32  1  0
 28 15  1  0
  1 40  1  0
  1 41  1  0
  1 42  1  0
  2 43  1  0
  2 44  1  0
  4 45  1  0
 13 46  1  0
 14 47  1  0
 17 48  1  0
 18 49  1  0
 18 50  1  0
 20 51  1  1
 21 52  1  0
 21 53  1  0
 22 54  1  0
 22 55  1  0
 25 56  1  0
 31 57  1  0
 33 58  1  0
 34 59  1  0
 35 60  1  0
 36 61  1  0
 38 62  1  0
M  END
>  <meeko>  (252) 
{"is_sidechain": [true], "free_energy": -13.54, "intermolecular_energy": 0.0, "internal_energy": -13.54, "cluster_size": 8, "cluster_id": 1, "rank_in_cluster": 1}

>  <_RMSD_MCS_to_ref>  (252) 
1.246662132931056

$$$$
ligand
     RDKit          3D

 59 64  0  0  0  0  0  0  0  0999 V2000
   24.8540    9.4020    7.6050 C   0  0  0  0  0  0  0  0  0  0  0  0
   25.5230   10.7550    7.4270 C   0  0  0  0  0  0  0  0  0  0  0  0
   26.9480   10.6290    7.0140 C   0  0  0  0  0  0  0  0  0  0  0  0
   27.6290   11.3060    6.0230 C   0  0  0  0  0  0  0  0  0  0  0  0
   28.8880   10.7770    6.0580 N   0  0  0  0  0  0  0  0  0  0  0  0
   30.2350   11.3970    5.2590 S   0  0  0  0  0  6  0  0  0  0  0  0
   31.3540   10.6180    5.7530 O   0  0  0  0  0  0  0  0  0  0  0  0
   29.8660   11.4050    3.8570 O   0  0  0  0  0  0  0  0  0  0  0  0
   30.3950   12.9370    5.7730 O   0  0  0  0  0  0  0  0  0  0  0  0
   30.1370   13.3490    7.0680 C   0  0  0  0  0  0  0  0  0  0  0  0
   30.9900   13.2760    8.1170 C   0  0  0  0  0  0  0  0  0  0  0  0
   30.6870   13.6890    9.4060 N   0  0  0  0  0  0  0  0  0  0  0  0
   29.5080   14.1960    9.6320 C   0  0  0  0  0  0  0  0  0  0  0  0
   28.5440   14.3390    8.5860 C   0  0  0  0  0  0  0  0  0  0  0  0
   27.2590   14.8250    8.4770 C   0  0  0  0  0  0  0  0  0  0  0  0
   26.4440   15.4170    9.5210 C   0  0  0  0  0  0  0  0  0  0  0  0
   25.0590   15.1460    9.6180 C   0  0  0  0  0  0  0  0  0  0  0  0
   24.2840   15.7170   10.6330 C   0  0  0  0  0  0  0  0  0  0  0  0
   24.9250   16.5430   11.5360 C   0  0  0  0  0  0  0  0  0  0  0  0
   26.2900   16.8070   11.4750 C   0  0  0  0  0  0  0  0  0  0  0  0
   27.0650   16.2450   10.4750 C   0  0  0  0  0  0  0  0  0  0  0  0
   26.6880   17.6900   12.6090 C   0  0  0  0  0  0  0  0  0  0  0  0
   25.4110   18.0000   13.2360 N   0  0  0  0  0  0  0  0  0  0  0  0
   25.3460   18.6780   14.5260 C   0  0  1  0  0  0  0  0  0  0  0  0
   26.1710   18.0000   15.6210 C   0  0  0  0  0  0  0  0  0  0  0  0
   25.9810   18.7480   16.9310 C   0  0  0  0  0  0  0  0  0  0  0  0
   26.3540   20.2060   16.7880 C   0  0  0  0  0  0  0  0  0  0  0  0
   26.6820   20.8950   17.7490 O   0  0  0  0  0  0  0  0  0  0  0  0
   26.2260   20.7550   15.5360 N   0  0  0  0  0  0  0  0  0  0  0  0
   25.7350   20.1600   14.3970 C   0  0  0  0  0  0  0  0  0  0  0  0
   25.5310   20.8290   13.3860 O   0  0  0  0  0  0  0  0  0  0  0  0
   24.3720   17.2600   12.6900 C   0  0  0  0  0  0  0  0  0  0  0  0
   23.2200   17.1760   13.0670 O   0  0  0  0  0  0  0  0  0  0  0  0
   26.7900   14.6360    7.1940 N   0  0  0  0  0  0  0  0  0  0  0  0
   27.7880   14.0940    6.5290 C   0  0  0  0  0  0  0  0  0  0  0  0
   28.8800   13.8920    7.3300 N   0  0  0  0  0  0  0  0  0  0  0  0
   28.9660    9.8860    7.0800 C   0  0  0  0  0  0  0  0  0  0  0  0
   27.7950    9.7560    7.6690 N   0  0  0  0  0  0  0  0  0  0  0  0
   24.7464    9.1845    8.6779 H   0  0  0  0  0  0  0  0  0  0  0  0
   23.8606    9.4192    7.1330 H   0  0  0  0  0  0  0  0  0  0  0  0
   25.4708    8.6230    7.1330 H   0  0  0  0  0  0  0  0  0  0  0  0
   24.9794   11.3200    6.6555 H   0  0  0  0  0  0  0  0  0  0  0  0
   25.4975   11.2740    8.3965 H   0  0  0  0  0  0  0  0  0  0  0  0
   27.2454   12.0926    5.3566 H   0  0  0  0  0  0  0  0  0  0  0  0
   31.9921   12.8606    7.9344 H   0  0  0  0  0  0  0  0  0  0  0  0
   29.2487   14.5212   10.6503 H   0  0  0  0  0  0  0  0  0  0  0  0
   24.5847   14.4768    8.8850 H   0  0  0  0  0  0  0  0  0  0  0  0
   23.2052   15.5160   10.7092 H   0  0  0  0  0  0  0  0  0  0  0  0
   28.1462   16.4419   10.4268 H   0  0  0  0  0  0  0  0  0  0  0  0
   27.3551   17.1630   13.3070 H   0  0  0  0  0  0  0  0  0  0  0  0
   27.2470   18.5827   12.2920 H   0  0  0  0  0  0  0  0  0  0  0  0
   24.2949   18.6080   14.8428 H   0  0  0  0  0  0  0  0  0  0  0  0
   25.8370   16.9588   15.7409 H   0  0  0  0  0  0  0  0  0  0  0  0
   27.2347   18.0124   15.3412 H   0  0  0  0  0  0  0  0  0  0  0  0
   24.9265   18.6758   17.2356 H   0  0  0  0  0  0  0  0  0  0  0  0
   26.6361   18.2940   17.6891 H   0  0  0  0  0  0  0  0  0  0  0  0
   26.5356   21.7324   15.4375 H   0  0  0  0  0  0  0  0  0  0  0  0
   27.7496   13.8350    5.4606 H   0  0  0  0  0  0  0  0  0  0  0  0
   29.8792    9.3482    7.3746 H   0  0  0  0  0  0  0  0  0  0  0  0
  1  2  1  0
  2  3  1  0
  3  4  2  0
  4  5  1  0
  5  6  1  0
  6  7  2  0
  6  8  2  0
  6  9  1  0
  9 10  1  0
 10 11  2  0
 11 12  1  0
 12 13  2  0
 13 14  1  0
 14 15  2  0
 15 16  1  0
 16 17  2  0
 17 18  1  0
 18 19  2  0
 19 20  1  0
 20 21  2  0
 20 22  1  0
 22 23  1  0
 23 24  1  0
 24 25  1  0
 25 26  1  0
 26 27  1  0
 27 28  2  0
 27 29  1  0
 29 30  1  0
 30 31  2  0
 23 32  1  0
 32 33  2  0
 15 34  1  0
 34 35  2  0
 35 36  1  0
  5 37  1  0
 37 38  2  0
 38  3  1  0
 36 10  1  0
 36 14  1  0
 21 16  1  0
 30 24  1  0
 32 19  1  0
  1 39  1  0
  1 40  1  0
  1 41  1  0
  2 42  1  0
  2 43  1  0
  4 44  1  0
 11 45  1  0
 13 46  1  0
 17 47  1  0
 18 48  1  0
 21 49  1  0
 22 50  1  0
 22 51  1  0
 24 52  1  1
 25 53  1  0
 25 54  1  0
 26 55  1  0
 26 56  1  0
 29 57  1  0
 35 58  1  0
 37 59  1  0
M  END
>  <meeko>  (253) 
{"is_sidechain": [true], "free_energy": -13.53, "intermolecular_energy": 0.0, "internal_energy": -13.53, "cluster_size": 18, "cluster_id": 1, "rank_in_cluster": 1}

>  <_RMSD_MCS_to_ref>  (253) 
0.7135984709749429

$$$$
ligand
     RDKit          3D

 58 62  0  0  0  0  0  0  0  0999 V2000
   24.8540    9.4020    7.6050 C   0  0  0  0  0  0  0  0  0  0  0  0
   25.5230   10.7550    7.4270 C   0  0  0  0  0  0  0  0  0  0  0  0
   25.0760   11.4430    6.1860 C   0  0  0  0  0  0  0  0  0  0  0  0
   25.4750   12.6630    5.6750 C   0  0  0  0  0  0  0  0  0  0  0  0
   24.7260   12.8110    4.5410 N   0  0  0  0  0  0  0  0  0  0  0  0
   24.9380   14.0120    3.3870 S   0  0  0  0  0  6  0  0  0  0  0  0
   23.8270   14.9370    3.4780 O   0  0  0  0  0  0  0  0  0  0  0  0
   25.1770   13.2680    2.1610 O   0  0  0  0  0  0  0  0  0  0  0  0
   26.4240   14.8730    3.7760 C   0  0  0  0  0  0  0  0  0  0  0  0
   27.4520   14.8840    2.8220 C   0  0  0  0  0  0  0  0  0  0  0  0
   28.6040   15.6330    3.0460 C   0  0  0  0  0  0  0  0  0  0  0  0
   28.6880   16.3700    4.2110 C   0  0  0  0  0  0  0  0  0  0  0  0
   27.7160   16.3920    5.1470 N   0  0  0  0  0  0  0  0  0  0  0  0
   26.5910   15.6330    4.9230 C   0  0  0  0  0  0  0  0  0  0  0  0
   25.6130   15.7080    6.0600 C   0  0  0  0  0  0  0  0  0  0  0  0
   24.4310   15.4680    5.8750 O   0  0  0  0  0  0  0  0  0  0  0  0
   26.2130   16.0090    7.2690 N   0  0  0  0  0  0  0  0  0  0  0  0
   25.6100   16.1490    8.5320 C   0  0  0  0  0  0  0  0  0  0  0  0
   24.4490   15.4460    8.9250 C   0  0  0  0  0  0  0  0  0  0  0  0
   23.8880   15.6180   10.2000 C   0  0  0  0  0  0  0  0  0  0  0  0
   24.5090   16.5070   11.0500 C   0  0  0  0  0  0  0  0  0  0  0  0
   25.6400   17.1990   10.6700 C   0  0  0  0  0  0  0  0  0  0  0  0
   26.2170   17.0450    9.4240 C   0  0  0  0  0  0  0  0  0  0  0  0
   26.0390   18.0390   11.7960 C   0  0  0  0  0  0  0  0  0  0  0  0
   27.0180   18.7620   11.7970 O   0  0  0  0  0  0  0  0  0  0  0  0
   25.1120   17.8440   12.7830 N   0  0  0  0  0  0  0  0  0  0  0  0
   25.2540   18.4020   14.1190 C   0  0  1  0  0  0  0  0  0  0  0  0
   26.3800   17.7840   14.9420 C   0  0  0  0  0  0  0  0  0  0  0  0
   26.3990   18.4240   16.3230 C   0  0  0  0  0  0  0  0  0  0  0  0
   26.5370   19.9260   16.2310 C   0  0  0  0  0  0  0  0  0  0  0  0
   27.0470   20.5940   17.1260 O   0  0  0  0  0  0  0  0  0  0  0  0
   26.0060   20.5260   15.1160 N   0  0  0  0  0  0  0  0  0  0  0  0
   25.4460   19.9180   14.0140 C   0  0  0  0  0  0  0  0  0  0  0  0
   25.0770   20.5910   13.0530 O   0  0  0  0  0  0  0  0  0  0  0  0
   24.1890   16.9000   12.4210 C   0  0  0  0  0  0  0  0  0  0  0  0
   23.2790   16.4270   13.0730 O   0  0  0  0  0  0  0  0  0  0  0  0
   23.9850   11.6890    4.3490 C   0  0  0  0  0  0  0  0  0  0  0  0
   24.1550   10.8470    5.3480 N   0  0  0  0  0  0  0  0  0  0  0  0
   24.7464    9.1845    8.6779 H   0  0  0  0  0  0  0  0  0  0  0  0
   23.8606    9.4192    7.1330 H   0  0  0  0  0  0  0  0  0  0  0  0
   25.4708    8.6230    7.1330 H   0  0  0  0  0  0  0  0  0  0  0  0
   25.2768   11.3886    8.2918 H   0  0  0  0  0  0  0  0  0  0  0  0
   26.6075   10.5883    7.3493 H   0  0  0  0  0  0  0  0  0  0  0  0
   26.2236   13.3562    6.0862 H   0  0  0  0  0  0  0  0  0  0  0  0
   27.3479   14.3001    1.8956 H   0  0  0  0  0  0  0  0  0  0  0  0
   29.4255   15.6377    2.3145 H   0  0  0  0  0  0  0  0  0  0  0  0
   29.5935   16.9698    4.3849 H   0  0  0  0  0  0  0  0  0  0  0  0
   27.2331   16.1487    7.2410 H   0  0  0  0  0  0  0  0  0  0  0  0
   23.9752   14.7498    8.2173 H   0  0  0  0  0  0  0  0  0  0  0  0
   22.9884   15.0651   10.5084 H   0  0  0  0  0  0  0  0  0  0  0  0
   27.1205   17.6053    9.1417 H   0  0  0  0  0  0  0  0  0  0  0  0
   24.3277   18.1588   14.6601 H   0  0  0  0  0  0  0  0  0  0  0  0
   26.2125   16.7013   15.0404 H   0  0  0  0  0  0  0  0  0  0  0  0
   27.3433   17.9582   14.4403 H   0  0  0  0  0  0  0  0  0  0  0  0
   25.4604   18.1817   16.8430 H   0  0  0  0  0  0  0  0  0  0  0  0
   27.2640   18.0294   16.8763 H   0  0  0  0  0  0  0  0  0  0  0  0
   26.0292   21.5556   15.1018 H   0  0  0  0  0  0  0  0  0  0  0  0
   23.3340   11.5086    3.4809 H   0  0  0  0  0  0  0  0  0  0  0  0
  1  2  1  0
  2  3  1  0
  3  4  2  0
  4  5  1  0
  5  6  1  0
  6  7  2  0
  6  8  2  0
  6  9  1  0
  9 10  2  0
 10 11  1  0
 11 12  2  0
 12 13  1  0
 13 14  2  0
 14 15  1  0
 15 16  2  0
 15 17  1  0
 17 18  1  0
 18 19  2  0
 19 20  1  0
 20 21  2  0
 21 22  1  0
 22 23  2  0
 22 24  1  0
 24 25  2  0
 24 26  1  0
 26 27  1  0
 27 28  1  0
 28 29  1  0
 29 30  1  0
 30 31  2  0
 30 32  1  0
 32 33  1  0
 33 34  2  0
 26 35  1  0
 35 36  2  0
  5 37  1  0
 37 38  2  0
 38  3  1  0
 14  9  1  0
 23 18  1  0
 33 27  1  0
 35 21  1  0
  1 39  1  0
  1 40  1  0
  1 41  1  0
  2 42  1  0
  2 43  1  0
  4 44  1  0
 10 45  1  0
 11 46  1  0
 12 47  1  0
 17 48  1  0
 19 49  1  0
 20 50  1  0
 23 51  1  0
 27 52  1  1
 28 53  1  0
 28 54  1  0
 29 55  1  0
 29 56  1  0
 32 57  1  0
 37 58  1  0
M  END
>  <meeko>  (254) 
{"is_sidechain": [true], "free_energy": -13.53, "intermolecular_energy": 0.0, "internal_energy": -13.53, "cluster_size": 15, "cluster_id": 1, "rank_in_cluster": 1}

>  <_RMSD_MCS_to_ref>  (254) 
0.6248482815852177

$$$$
ligand
     RDKit          3D

 63 68  0  0  0  0  0  0  0  0999 V2000
   24.8710    9.6160    7.7820 C   0  0  0  0  0  0  0  0  0  0  0  0
   25.4240   10.9650    7.3490 C   0  0  0  0  0  0  0  0  0  0  0  0
   25.0280   11.3070    5.9560 C   0  0  0  0  0  0  0  0  0  0  0  0
   24.1780   12.3030    5.5140 C   0  0  0  0  0  0  0  0  0  0  0  0
   24.2340   12.2030    4.1550 N   0  0  0  0  0  0  0  0  0  0  0  0
   23.3920   13.1510    3.0620 S   0  0  0  0  0  6  0  0  0  0  0  0
   22.1530   13.4810    3.7370 O   0  0  0  0  0  0  0  0  0  0  0  0
   23.4180   12.4610    1.7900 O   0  0  0  0  0  0  0  0  0  0  0  0
   24.1710   14.7010    2.7780 C   0  0  0  0  0  0  0  0  0  0  0  0
   24.0340   15.5530    1.6910 C   0  0  0  0  0  0  0  0  0  0  0  0
   24.6260   16.7540    2.0790 C   0  0  0  0  0  0  0  0  0  0  0  0
   25.1220   16.6850    3.3100 N   0  0  0  0  0  0  0  0  0  0  0  0
   24.9860   15.3780    3.6740 N   0  0  0  0  0  0  0  0  0  0  0  0
   25.6290   14.9490    4.8690 C   0  0  0  0  0  0  0  0  0  0  0  0
   26.7990   14.1790    4.7660 C   0  0  0  0  0  0  0  0  0  0  0  0
   27.4900   13.7930    5.9140 C   0  0  0  0  0  0  0  0  0  0  0  0
   27.0140   14.1600    7.1710 C   0  0  0  0  0  0  0  0  0  0  0  0
   25.8210   14.8840    7.2980 C   0  0  0  0  0  0  0  0  0  0  0  0
   25.3210   15.2760    8.6180 C   0  0  0  0  0  0  0  0  0  0  0  0
   24.0380   14.8650    9.0540 C   0  0  0  0  0  0  0  0  0  0  0  0
   23.5360   15.2530   10.3000 C   0  0  0  0  0  0  0  0  0  0  0  0
   24.3410   16.0550   11.0850 C   0  0  0  0  0  0  0  0  0  0  0  0
   25.6030   16.4770   10.6820 C   0  0  0  0  0  0  0  0  0  0  0  0
   26.1090   16.0930    9.4530 C   0  0  0  0  0  0  0  0  0  0  0  0
   26.2020   17.3630   11.7220 C   0  0  0  0  0  0  0  0  0  0  0  0
   25.2210   17.3010   12.7970 N   0  0  0  0  0  0  0  0  0  0  0  0
   25.2950   18.2010   13.9420 C   0  0  2  0  0  0  0  0  0  0  0  0
   25.9610   19.5410   13.6280 C   0  0  0  0  0  0  0  0  0  0  0  0
   25.9270   20.4220   14.8670 C   0  0  0  0  0  0  0  0  0  0  0  0
   26.5910   19.7420   16.0410 C   0  0  0  0  0  0  0  0  0  0  0  0
   27.0550   20.3740   16.9860 O   0  0  0  0  0  0  0  0  0  0  0  0
   26.5790   18.3690   16.0460 N   0  0  0  0  0  0  0  0  0  0  0  0
   25.9810   17.5250   15.1390 C   0  0  0  0  0  0  0  0  0  0  0  0
   25.9260   16.3160   15.3600 O   0  0  0  0  0  0  0  0  0  0  0  0
   24.0730   16.6210   12.4120 C   0  0  0  0  0  0  0  0  0  0  0  0
   23.0240   16.5050   13.0150 O   0  0  0  0  0  0  0  0  0  0  0  0
   25.1190   15.2500    6.1350 C   0  0  0  0  0  0  0  0  0  0  0  0
   24.9870   11.1270    3.8140 C   0  0  0  0  0  0  0  0  0  0  0  0
   25.5210   10.5810    4.8880 N   0  0  0  0  0  0  0  0  0  0  0  0
   24.8497    9.5640    8.8806 H   0  0  0  0  0  0  0  0  0  0  0  0
   23.8507    9.4948    7.3893 H   0  0  0  0  0  0  0  0  0  0  0  0
   25.5127    8.8135    7.3893 H   0  0  0  0  0  0  0  0  0  0  0  0
   25.0407   11.7408    8.0281 H   0  0  0  0  0  0  0  0  0  0  0  0
   26.5220   10.9110    7.3872 H   0  0  0  0  0  0  0  0  0  0  0  0
   23.5924   13.0117    6.1179 H   0  0  0  0  0  0  0  0  0  0  0  0
   23.5579   15.3277    0.7253 H   0  0  0  0  0  0  0  0  0  0  0  0
   24.6765   17.6502    1.4432 H   0  0  0  0  0  0  0  0  0  0  0  0
   27.1719   13.8791    3.7755 H   0  0  0  0  0  0  0  0  0  0  0  0
   28.4114   13.1984    5.8272 H   0  0  0  0  0  0  0  0  0  0  0  0
   27.5797   13.8789    8.0716 H   0  0  0  0  0  0  0  0  0  0  0  0
   23.4244   14.2282    8.3998 H   0  0  0  0  0  0  0  0  0  0  0  0
   22.5405   14.9326   10.6411 H   0  0  0  0  0  0  0  0  0  0  0  0
   27.1094   16.4199    9.1331 H   0  0  0  0  0  0  0  0  0  0  0  0
   27.1789   16.9815   12.0537 H   0  0  0  0  0  0  0  0  0  0  0  0
   26.3963   18.3855   11.3660 H   0  0  0  0  0  0  0  0  0  0  0  0
   24.2518   18.4278   14.2073 H   0  0  0  0  0  0  0  0  0  0  0  0
   27.0052   19.3707   13.3268 H   0  0  0  0  0  0  0  0  0  0  0  0
   25.4213   20.0374   12.8081 H   0  0  0  0  0  0  0  0  0  0  0  0
   26.4546   21.3630   14.6524 H   0  0  0  0  0  0  0  0  0  0  0  0
   24.8759   20.6163   15.1267 H   0  0  0  0  0  0  0  0  0  0  0  0
   27.0789   17.9155   16.8240 H   0  0  0  0  0  0  0  0  0  0  0  0
   24.1584   15.7787    6.2230 H   0  0  0  0  0  0  0  0  0  0  0  0
   25.1313   10.7620    2.7864 H   0  0  0  0  0  0  0  0  0  0  0  0
  1  2  1  0
  2  3  1  0
  3  4  2  0
  4  5  1  0
  5  6  1  0
  6  7  2  0
  6  8  2  0
  6  9  1  0
  9 10  2  0
 10 11  1  0
 11 12  2  0
 12 13  1  0
 13 14  1  0
 14 15  2  0
 15 16  1  0
 16 17  2  0
 17 18  1  0
 18 19  1  0
 19 20  2  0
 20 21  1  0
 21 22  2  0
 22 23  1  0
 23 24  2  0
 23 25  1  0
 25 26  1  0
 26 27  1  0
 27 28  1  0
 28 29  1  0
 29 30  1  0
 30 31  2  0
 30 32  1  0
 32 33  1  0
 33 34  2  0
 26 35  1  0
 35 36  2  0
 18 37  2  0
  5 38  1  0
 38 39  2  0
 39  3  1  0
 13  9  1  0
 37 14  1  0
 24 19  1  0
 33 27  1  0
 35 22  1  0
  1 40  1  0
  1 41  1  0
  1 42  1  0
  2 43  1  0
  2 44  1  0
  4 45  1  0
 10 46  1  0
 11 47  1  0
 15 48  1  0
 16 49  1  0
 17 50  1  0
 20 51  1  0
 21 52  1  0
 24 53  1  0
 25 54  1  0
 25 55  1  0
 27 56  1  1
 28 57  1  0
 28 58  1  0
 29 59  1  0
 29 60  1  0
 32 61  1  0
 37 62  1  0
 38 63  1  0
M  END
>  <meeko>  (255) 
{"is_sidechain": [true], "free_energy": -13.53, "intermolecular_energy": 0.0, "internal_energy": -13.53, "cluster_size": 7, "cluster_id": 2, "rank_in_cluster": 1}

>  <_RMSD_MCS_to_ref>  (255) 
1.6701731867337026

$$$$
ligand
     RDKit          3D

 61 66  0  0  0  0  0  0  0  0999 V2000
   24.8540    9.4020    7.6050 C   0  0  0  0  0  0  0  0  0  0  0  0
   25.5230   10.7550    7.4270 C   0  0  0  0  0  0  0  0  0  0  0  0
   26.9940   10.7000    7.6560 C   0  0  0  0  0  0  0  0  0  0  0  0
   27.8550   11.7200    8.0090 C   0  0  0  0  0  0  0  0  0  0  0  0
   29.0790   11.1170    8.0900 N   0  0  0  0  0  0  0  0  0  0  0  0
   30.5460   11.9130    8.3240 S   0  0  0  0  0  6  0  0  0  0  0  0
   31.2540   11.0600    9.2620 O   0  0  0  0  0  0  0  0  0  0  0  0
   31.0750   12.1690    6.9990 O   0  0  0  0  0  0  0  0  0  0  0  0
   30.2040   13.3150    9.0940 O   0  0  0  0  0  0  0  0  0  0  0  0
   29.2400   14.1710    8.7600 C   0  0  0  0  0  0  0  0  0  0  0  0
   27.9770   14.4650    9.2320 C   0  0  0  0  0  0  0  0  0  0  0  0
   27.4140   15.4940    8.4070 C   0  0  0  0  0  0  0  0  0  0  0  0
   26.1770   16.1880    8.3700 C   0  0  0  0  0  0  0  0  0  0  0  0
   25.1280   15.9010    9.3480 C   0  0  0  0  0  0  0  0  0  0  0  0
   24.0910   14.9950    9.0540 C   0  0  0  0  0  0  0  0  0  0  0  0
   23.0610   14.7220    9.9760 C   0  0  0  0  0  0  0  0  0  0  0  0
   23.0410   15.3520   11.2200 C   0  0  0  0  0  0  0  0  0  0  0  0
   24.0590   16.2450   11.4920 C   0  0  0  0  0  0  0  0  0  0  0  0
   25.0850   16.5240   10.5900 C   0  0  0  0  0  0  0  0  0  0  0  0
   26.0300   17.5070   11.1910 C   0  0  0  0  0  0  0  0  0  0  0  0
   25.4410   17.7810   12.4980 N   0  0  0  0  0  0  0  0  0  0  0  0
   26.2420   18.2630   13.6230 C   0  0  2  0  0  0  0  0  0  0  0  0
   25.8660   17.5720   14.9290 C   0  0  0  0  0  0  0  0  0  0  0  0
   26.6810   18.1640   16.0670 C   0  0  0  0  0  0  0  0  0  0  0  0
   26.4200   19.6460   16.1840 C   0  0  0  0  0  0  0  0  0  0  0  0
   26.3640   20.2120   17.2720 O   0  0  0  0  0  0  0  0  0  0  0  0
   26.2780   20.3250   15.0010 N   0  0  0  0  0  0  0  0  0  0  0  0
   26.0740   19.7890   13.7510 C   0  0  0  0  0  0  0  0  0  0  0  0
   25.7790   20.5110   12.7980 O   0  0  0  0  0  0  0  0  0  0  0  0
   24.3050   17.0100   12.7200 C   0  0  0  0  0  0  0  0  0  0  0  0
   23.6400   16.9350   13.7350 O   0  0  0  0  0  0  0  0  0  0  0  0
   25.9810   17.1600    7.3680 C   0  0  0  0  0  0  0  0  0  0  0  0
   26.9710   17.4460    6.4330 C   0  0  0  0  0  0  0  0  0  0  0  0
   28.1910   16.7700    6.4540 C   0  0  0  0  0  0  0  0  0  0  0  0
   28.3800   15.8030    7.4470 C   0  0  0  0  0  0  0  0  0  0  0  0
   29.4610   14.9870    7.6820 N   0  0  0  0  0  0  0  0  0  0  0  0
   28.9510    9.8070    7.7690 C   0  0  0  0  0  0  0  0  0  0  0  0
   27.6910    9.5150    7.4990 N   0  0  0  0  0  0  0  0  0  0  0  0
   24.7464    9.1845    8.6779 H   0  0  0  0  0  0  0  0  0  0  0  0
   23.8606    9.4192    7.1330 H   0  0  0  0  0  0  0  0  0  0  0  0
   25.4708    8.6230    7.1330 H   0  0  0  0  0  0  0  0  0  0  0  0
   25.3388   11.1071    6.4013 H   0  0  0  0  0  0  0  0  0  0  0  0
   25.0945   11.4399    8.1735 H   0  0  0  0  0  0  0  0  0  0  0  0
   27.6112   12.7781    8.1851 H   0  0  0  0  0  0  0  0  0  0  0  0
   27.4857   13.9907   10.0944 H   0  0  0  0  0  0  0  0  0  0  0  0
   24.0848   14.4867    8.0785 H   0  0  0  0  0  0  0  0  0  0  0  0
   22.2674   14.0072    9.7128 H   0  0  0  0  0  0  0  0  0  0  0  0
   22.2478   15.1464   11.9538 H   0  0  0  0  0  0  0  0  0  0  0  0
   27.0360   17.0742   11.2947 H   0  0  0  0  0  0  0  0  0  0  0  0
   26.1588   18.4113   10.5781 H   0  0  0  0  0  0  0  0  0  0  0  0
   27.2963   18.0204   13.4239 H   0  0  0  0  0  0  0  0  0  0  0  0
   24.7947   17.7221   15.1282 H   0  0  0  0  0  0  0  0  0  0  0  0
   26.0761   16.4953   14.8484 H   0  0  0  0  0  0  0  0  0  0  0  0
   26.4000   17.6708   17.0092 H   0  0  0  0  0  0  0  0  0  0  0  0
   27.7498   18.0045   15.8617 H   0  0  0  0  0  0  0  0  0  0  0  0
   26.3300   21.3523   15.0547 H   0  0  0  0  0  0  0  0  0  0  0  0
   25.0257   17.7036    7.3244 H   0  0  0  0  0  0  0  0  0  0  0  0
   26.7893   18.2149    5.6676 H   0  0  0  0  0  0  0  0  0  0  0  0
   28.9765   16.9895    5.7159 H   0  0  0  0  0  0  0  0  0  0  0  0
   30.3246   14.9889    7.1207 H   0  0  0  0  0  0  0  0  0  0  0  0
   29.7813    9.0861    7.7375 H   0  0  0  0  0  0  0  0  0  0  0  0
  1  2  1  0
  2  3  1  0
  3  4  2  0
  4  5  1  0
  5  6  1  0
  6  7  2  0
  6  8  2  0
  6  9  1  0
  9 10  1  0
 10 11  2  0
 11 12  1  0
 12 13  2  0
 13 14  1  0
 14 15  2  0
 15 16  1  0
 16 17  2  0
 17 18  1  0
 18 19  2  0
 19 20  1  0
 20 21  1  0
 21 22  1  0
 22 23  1  0
 23 24  1  0
 24 25  1  0
 25 26  2  0
 25 27  1  0
 27 28  1  0
 28 29  2  0
 21 30  1  0
 30 31  2  0
 13 32  1  0
 32 33  2  0
 33 34  1  0
 34 35  2  0
 35 36  1  0
  5 37  1  0
 37 38  2  0
 38  3  1  0
 36 10  1  0
 35 12  1  0
 19 14  1  0
 28 22  1  0
 30 18  1  0
  1 39  1  0
  1 40  1  0
  1 41  1  0
  2 42  1  0
  2 43  1  0
  4 44  1  0
 11 45  1  0
 15 46  1  0
 16 47  1  0
 17 48  1  0
 20 49  1  0
 20 50  1  0
 22 51  1  6
 23 52  1  0
 23 53  1  0
 24 54  1  0
 24 55  1  0
 27 56  1  0
 32 57  1  0
 33 58  1  0
 34 59  1  0
 36 60  1  0
 37 61  1  0
M  END
>  <meeko>  (256) 
{"is_sidechain": [true], "free_energy": -13.51, "intermolecular_energy": 0.0, "internal_energy": -13.51, "cluster_size": 9, "cluster_id": 1, "rank_in_cluster": 1}

>  <_RMSD_MCS_to_ref>  (256) 
1.1121096069083194

$$$$
ligand
     RDKit          3D

 60 65  0  0  0  0  0  0  0  0999 V2000
   24.8540    9.4020    7.6050 C   0  0  0  0  0  0  0  0  0  0  0  0
   25.5230   10.7550    7.4270 C   0  0  0  0  0  0  0  0  0  0  0  0
   25.9220   11.0050    6.0150 C   0  0  0  0  0  0  0  0  0  0  0  0
   27.1580   11.3600    5.5100 C   0  0  0  0  0  0  0  0  0  0  0  0
   26.9630   11.4240    4.1600 N   0  0  0  0  0  0  0  0  0  0  0  0
   28.0490   12.0570    3.0370 S   0  0  0  0  0  6  0  0  0  0  0  0
   29.3430   11.5440    3.4460 O   0  0  0  0  0  0  0  0  0  0  0  0
   27.4740   11.7370    1.7460 O   0  0  0  0  0  0  0  0  0  0  0  0
   28.0200   13.6740    3.2530 O   0  0  0  0  0  0  0  0  0  0  0  0
   27.2470   14.3110    4.1980 C   0  0  0  0  0  0  0  0  0  0  0  0
   26.2600   15.2120    3.6040 C   0  0  0  0  0  0  0  0  0  0  0  0
   25.4320   15.9050    4.4040 C   0  0  0  0  0  0  0  0  0  0  0  0
   25.5330   15.7490    5.7820 N   0  0  0  0  0  0  0  0  0  0  0  0
   24.8090   16.3390    6.7850 C   0  0  0  0  0  0  0  0  0  0  0  0
   25.3180   15.8310    7.9630 C   0  0  0  0  0  0  0  0  0  0  0  0
   24.8770   16.1480    9.3150 C   0  0  0  0  0  0  0  0  0  0  0  0
   23.7150   15.5680    9.8780 C   0  0  0  0  0  0  0  0  0  0  0  0
   23.3040   15.8820   11.1790 C   0  0  0  0  0  0  0  0  0  0  0  0
   24.0720   16.7820   11.8880 C   0  0  0  0  0  0  0  0  0  0  0  0
   25.2190   17.3670   11.3630 C   0  0  0  0  0  0  0  0  0  0  0  0
   25.6330   17.0590   10.0780 C   0  0  0  0  0  0  0  0  0  0  0  0
   25.8410   18.2690   12.3740 C   0  0  0  0  0  0  0  0  0  0  0  0
   24.8810   18.2300   13.4700 N   0  0  0  0  0  0  0  0  0  0  0  0
   25.1910   18.8170   14.7690 C   0  0  1  0  0  0  0  0  0  0  0  0
   26.2780   18.0670   15.5380 C   0  0  0  0  0  0  0  0  0  0  0  0
   26.4770   18.7220   16.8970 C   0  0  0  0  0  0  0  0  0  0  0  0
   26.8200   20.1860   16.7520 C   0  0  0  0  0  0  0  0  0  0  0  0
   27.4190   20.8060   17.6270 O   0  0  0  0  0  0  0  0  0  0  0  0
   26.3540   20.8210   15.6290 N   0  0  0  0  0  0  0  0  0  0  0  0
   25.5520   20.3050   14.6360 C   0  0  0  0  0  0  0  0  0  0  0  0
   25.0860   21.0430   13.7690 O   0  0  0  0  0  0  0  0  0  0  0  0
   23.8850   17.2900   13.2530 C   0  0  0  0  0  0  0  0  0  0  0  0
   23.0170   16.9150   14.0160 O   0  0  0  0  0  0  0  0  0  0  0  0
   26.3380   14.9400    7.7000 N   0  0  0  0  0  0  0  0  0  0  0  0
   26.4520   14.9050    6.3900 C   0  0  0  0  0  0  0  0  0  0  0  0
   27.3320   14.1700    5.5410 C   0  0  0  0  0  0  0  0  0  0  0  0
   25.6520   11.1970    3.8890 C   0  0  0  0  0  0  0  0  0  0  0  0
   24.9940   10.9160    4.9950 N   0  0  0  0  0  0  0  0  0  0  0  0
   24.7464    9.1845    8.6779 H   0  0  0  0  0  0  0  0  0  0  0  0
   23.8606    9.4192    7.1330 H   0  0  0  0  0  0  0  0  0  0  0  0
   25.4708    8.6230    7.1330 H   0  0  0  0  0  0  0  0  0  0  0  0
   24.8206   11.5412    7.7409 H   0  0  0  0  0  0  0  0  0  0  0  0
   26.4352   10.7635    8.0416 H   0  0  0  0  0  0  0  0  0  0  0  0
   28.0871   11.5481    6.0680 H   0  0  0  0  0  0  0  0  0  0  0  0
   26.1959   15.3215    2.5113 H   0  0  0  0  0  0  0  0  0  0  0  0
   24.6837   16.5871    3.9741 H   0  0  0  0  0  0  0  0  0  0  0  0
   23.9916   17.0667    6.6741 H   0  0  0  0  0  0  0  0  0  0  0  0
   23.1238   14.8571    9.2821 H   0  0  0  0  0  0  0  0  0  0  0  0
   22.4035   15.4285   11.6187 H   0  0  0  0  0  0  0  0  0  0  0  0
   26.5398   17.5195    9.6589 H   0  0  0  0  0  0  0  0  0  0  0  0
   26.8232   17.8901   12.6930 H   0  0  0  0  0  0  0  0  0  0  0  0
   26.0313   19.2842   11.9956 H   0  0  0  0  0  0  0  0  0  0  0  0
   24.2703   18.7229   15.3636 H   0  0  0  0  0  0  0  0  0  0  0  0
   25.9734   17.0191   15.6764 H   0  0  0  0  0  0  0  0  0  0  0  0
   27.2202   18.1015   14.9713 H   0  0  0  0  0  0  0  0  0  0  0  0
   25.5495   18.6267   17.4806 H   0  0  0  0  0  0  0  0  0  0  0  0
   27.3101   18.2177   17.4084 H   0  0  0  0  0  0  0  0  0  0  0  0
   26.6389   21.8042   15.5146 H   0  0  0  0  0  0  0  0  0  0  0  0
   28.0783   13.4899    5.9775 H   0  0  0  0  0  0  0  0  0  0  0  0
   25.2023   11.2415    2.8861 H   0  0  0  0  0  0  0  0  0  0  0  0
  1  2  1  0
  2  3  1  0
  3  4  2  0
  4  5  1  0
  5  6  1  0
  6  7  2  0
  6  8  2  0
  6  9  1  0
  9 10  1  0
 10 11  1  0
 11 12  2  0
 12 13  1  0
 13 14  1  0
 14 15  2  0
 15 16  1  0
 16 17  2  0
 17 18  1  0
 18 19  2  0
 19 20  1  0
 20 21  2  0
 20 22  1  0
 22 23  1  0
 23 24  1  0
 24 25  1  0
 25 26  1  0
 26 27  1  0
 27 28  2  0
 27 29  1  0
 29 30  1  0
 30 31  2  0
 23 32  1  0
 32 33  2  0
 15 34  1  0
 34 35  2  0
 35 36  1  0
  5 37  1  0
 37 38  2  0
 38  3  1  0
 36 10  2  0
 35 13  1  0
 21 16  1  0
 30 24  1  0
 32 19  1  0
  1 39  1  0
  1 40  1  0
  1 41  1  0
  2 42  1  0
  2 43  1  0
  4 44  1  0
 11 45  1  0
 12 46  1  0
 14 47  1  0
 17 48  1  0
 18 49  1  0
 21 50  1  0
 22 51  1  0
 22 52  1  0
 24 53  1  1
 25 54  1  0
 25 55  1  0
 26 56  1  0
 26 57  1  0
 29 58  1  0
 36 59  1  0
 37 60  1  0
M  END
>  <meeko>  (257) 
{"is_sidechain": [true], "free_energy": -13.51, "intermolecular_energy": 0.0, "internal_energy": -13.51, "cluster_size": 19, "cluster_id": 1, "rank_in_cluster": 1}

>  <_RMSD_MCS_to_ref>  (257) 
0.5463457391310611

$$$$
ligand
     RDKit          3D

 55 59  0  0  0  0  0  0  0  0999 V2000
   24.8540    9.4020    7.6050 C   0  0  0  0  0  0  0  0  0  0  0  0
   25.5230   10.7550    7.4270 C   0  0  0  0  0  0  0  0  0  0  0  0
   25.4080   11.2610    6.0320 C   0  0  0  0  0  0  0  0  0  0  0  0
   26.1430   12.2450    5.4020 C   0  0  0  0  0  0  0  0  0  0  0  0
   25.6240   12.2910    4.1390 N   0  0  0  0  0  0  0  0  0  0  0  0
   26.1340   13.3210    2.9060 S   0  0  0  0  0  6  0  0  0  0  0  0
   27.4150   12.7600    2.5050 O   0  0  0  0  0  0  0  0  0  0  0  0
   25.0400   13.3910    1.9530 O   0  0  0  0  0  0  0  0  0  0  0  0
   26.4310   14.7980    3.5190 O   0  0  0  0  0  0  0  0  0  0  0  0
   26.0310   15.1050    4.7920 C   0  0  0  0  0  0  0  0  0  0  0  0
   26.9900   15.6030    5.6560 C   0  0  0  0  0  0  0  0  0  0  0  0
   26.6160   15.8890    6.9700 C   0  0  0  0  0  0  0  0  0  0  0  0
   25.3010   15.6630    7.3970 C   0  0  0  0  0  0  0  0  0  0  0  0
   24.8680   15.9530    8.7730 C   0  0  0  0  0  0  0  0  0  0  0  0
   23.7050   15.3370    9.3140 C   0  0  0  0  0  0  0  0  0  0  0  0
   23.2700   15.5890   10.6220 C   0  0  0  0  0  0  0  0  0  0  0  0
   24.0160   16.4700   11.3750 C   0  0  0  0  0  0  0  0  0  0  0  0
   25.1470   17.0800   10.8690 C   0  0  0  0  0  0  0  0  0  0  0  0
   25.5990   16.8440    9.5830 C   0  0  0  0  0  0  0  0  0  0  0  0
   25.6940   17.9330   11.9210 C   0  0  0  0  0  0  0  0  0  0  0  0
   26.7070   18.5950   11.8060 O   0  0  0  0  0  0  0  0  0  0  0  0
   24.8500   17.8270   12.9940 N   0  0  0  0  0  0  0  0  0  0  0  0
   25.1490   18.4160   14.2900 C   0  0  1  0  0  0  0  0  0  0  0  0
   26.3160   17.7620   15.0250 C   0  0  0  0  0  0  0  0  0  0  0  0
   26.5000   18.4410   16.3740 C   0  0  0  0  0  0  0  0  0  0  0  0
   26.7080   19.9300   16.2150 C   0  0  0  0  0  0  0  0  0  0  0  0
   27.3460   20.5920   17.0280 O   0  0  0  0  0  0  0  0  0  0  0  0
   26.0940   20.5250   15.1410 N   0  0  0  0  0  0  0  0  0  0  0  0
   25.4090   19.9150   14.1140 C   0  0  0  0  0  0  0  0  0  0  0  0
   24.9970   20.5730   13.1610 O   0  0  0  0  0  0  0  0  0  0  0  0
   23.8450   16.9300   12.7510 C   0  0  0  0  0  0  0  0  0  0  0  0
   22.9680   16.5380   13.4950 O   0  0  0  0  0  0  0  0  0  0  0  0
   24.4280   15.1410    6.4410 C   0  0  0  0  0  0  0  0  0  0  0  0
   24.7630   14.8570    5.1570 N   0  0  0  0  0  0  0  0  0  0  0  0
   24.6240   11.3800    4.0320 C   0  0  0  0  0  0  0  0  0  0  0  0
   24.4670   10.7320    5.1690 N   0  0  0  0  0  0  0  0  0  0  0  0
   24.7464    9.1845    8.6779 H   0  0  0  0  0  0  0  0  0  0  0  0
   23.8606    9.4192    7.1330 H   0  0  0  0  0  0  0  0  0  0  0  0
   25.4708    8.6230    7.1330 H   0  0  0  0  0  0  0  0  0  0  0  0
   25.0468   11.4775    8.1061 H   0  0  0  0  0  0  0  0  0  0  0  0
   26.5924   10.6351    7.6552 H   0  0  0  0  0  0  0  0  0  0  0  0
   26.9590   12.8524    5.8206 H   0  0  0  0  0  0  0  0  0  0  0  0
   28.0226   15.7696    5.3155 H   0  0  0  0  0  0  0  0  0  0  0  0
   27.3578   16.2940    7.6741 H   0  0  0  0  0  0  0  0  0  0  0  0
   23.1294   14.6412    8.6858 H   0  0  0  0  0  0  0  0  0  0  0  0
   22.3711   15.1042   11.0306 H   0  0  0  0  0  0  0  0  0  0  0  0
   26.5050   17.3389    9.2031 H   0  0  0  0  0  0  0  0  0  0  0  0
   24.2676   18.2402   14.9242 H   0  0  0  0  0  0  0  0  0  0  0  0
   26.1031   16.6935   15.1767 H   0  0  0  0  0  0  0  0  0  0  0  0
   27.2345   17.8680   14.4291 H   0  0  0  0  0  0  0  0  0  0  0  0
   25.6037   18.2678   16.9877 H   0  0  0  0  0  0  0  0  0  0  0  0
   27.3912   18.0155   16.8585 H   0  0  0  0  0  0  0  0  0  0  0  0
   26.1528   21.5524   15.0982 H   0  0  0  0  0  0  0  0  0  0  0  0
   23.3911   14.9452    6.7516 H   0  0  0  0  0  0  0  0  0  0  0  0
   24.0280   11.2066    3.1238 H   0  0  0  0  0  0  0  0  0  0  0  0
  1  2  1  0
  2  3  1  0
  3  4  2  0
  4  5  1  0
  5  6  1  0
  6  7  2  0
  6  8  2  0
  6  9  1  0
  9 10  1  0
 10 11  2  0
 11 12  1  0
 12 13  2  0
 13 14  1  0
 14 15  2  0
 15 16  1  0
 16 17  2  0
 17 18  1  0
 18 19  2  0
 18 20  1  0
 20 21  2  0
 20 22  1  0
 22 23  1  0
 23 24  1  0
 24 25  1  0
 25 26  1  0
 26 27  2  0
 26 28  1  0
 28 29  1  0
 29 30  2  0
 22 31  1  0
 31 32  2  0
 13 33  1  0
 33 34  2  0
  5 35  1  0
 35 36  2  0
 36  3  1  0
 34 10  1  0
 19 14  1  0
 29 23  1  0
 31 17  1  0
  1 37  1  0
  1 38  1  0
  1 39  1  0
  2 40  1  0
  2 41  1  0
  4 42  1  0
 11 43  1  0
 12 44  1  0
 15 45  1  0
 16 46  1  0
 19 47  1  0
 23 48  1  1
 24 49  1  0
 24 50  1  0
 25 51  1  0
 25 52  1  0
 28 53  1  0
 33 54  1  0
 35 55  1  0
M  END
>  <meeko>  (258) 
{"is_sidechain": [true], "free_energy": -13.5, "intermolecular_energy": 0.0, "internal_energy": -13.5, "cluster_size": 20, "cluster_id": 1, "rank_in_cluster": 1}

>  <_RMSD_MCS_to_ref>  (258) 
0.4970833822296703

$$$$
ligand
     RDKit          3D

 60 64  0  0  0  0  0  0  0  0999 V2000
   24.8710    9.6160    7.7820 C   0  0  0  0  0  0  0  0  0  0  0  0
   25.4240   10.9650    7.3490 C   0  0  0  0  0  0  0  0  0  0  0  0
   26.8850   11.0820    7.6060 C   0  0  0  0  0  0  0  0  0  0  0  0
   27.6340   12.2130    7.8610 C   0  0  0  0  0  0  0  0  0  0  0  0
   28.9040   11.7420    8.0310 N   0  0  0  0  0  0  0  0  0  0  0  0
   30.2910   12.6830    8.1660 S   0  0  0  0  0  6  0  0  0  0  0  0
   30.0770   13.5230    9.3330 O   0  0  0  0  0  0  0  0  0  0  0  0
   31.4100   11.7670    8.0750 O   0  0  0  0  0  0  0  0  0  0  0  0
   30.2470   13.6940    6.7100 C   0  0  0  0  0  0  0  0  0  0  0  0
   31.2350   13.4490    5.7400 C   0  0  0  0  0  0  0  0  0  0  0  0
   31.2390   14.1710    4.5510 C   0  0  0  0  0  0  0  0  0  0  0  0
   30.2650   15.1380    4.3340 C   0  0  0  0  0  0  0  0  0  0  0  0
   29.2910   15.3930    5.3070 C   0  0  0  0  0  0  0  0  0  0  0  0
   29.2620   14.6830    6.5150 C   0  0  0  0  0  0  0  0  0  0  0  0
   28.3000   14.9650    7.5180 N   0  0  0  0  0  0  0  0  0  0  0  0
   26.9440   15.1920    7.3580 C   0  0  0  0  0  0  0  0  0  0  0  0
   26.3060   15.0820    6.3190 O   0  0  0  0  0  0  0  0  0  0  0  0
   26.2020   15.5460    8.6060 C   0  0  0  0  0  0  0  0  0  0  0  0
   24.8720   15.1210    8.8320 C   0  0  0  0  0  0  0  0  0  0  0  0
   24.2030   15.4710   10.0090 C   0  0  0  0  0  0  0  0  0  0  0  0
   24.8940   16.2280   10.9350 C   0  0  0  0  0  0  0  0  0  0  0  0
   26.2090   16.6440   10.7400 C   0  0  0  0  0  0  0  0  0  0  0  0
   26.8810   16.3070    9.5760 C   0  0  0  0  0  0  0  0  0  0  0  0
   26.6720   17.4480   11.9090 C   0  0  0  0  0  0  0  0  0  0  0  0
   25.5320   17.3730   12.8150 N   0  0  0  0  0  0  0  0  0  0  0  0
   25.3890   18.2180   13.9950 C   0  0  1  0  0  0  0  0  0  0  0  0
   26.1940   17.7020   15.1840 C   0  0  0  0  0  0  0  0  0  0  0  0
   25.9230   18.5830   16.3950 C   0  0  0  0  0  0  0  0  0  0  0  0
   26.2250   20.0320   16.0940 C   0  0  0  0  0  0  0  0  0  0  0  0
   26.7000   20.7920   16.9320 O   0  0  0  0  0  0  0  0  0  0  0  0
   25.9220   20.4720   14.8310 N   0  0  0  0  0  0  0  0  0  0  0  0
   25.7890   19.6770   13.7160 C   0  0  0  0  0  0  0  0  0  0  0  0
   25.9970   20.1390   12.5960 O   0  0  0  0  0  0  0  0  0  0  0  0
   24.4470   16.7320   12.2380 C   0  0  0  0  0  0  0  0  0  0  0  0
   23.3260   16.5970   12.6910 O   0  0  0  0  0  0  0  0  0  0  0  0
   28.9110   10.3980    7.8400 C   0  0  0  0  0  0  0  0  0  0  0  0
   27.6940    9.9620    7.5910 N   0  0  0  0  0  0  0  0  0  0  0  0
   24.8497    9.5640    8.8806 H   0  0  0  0  0  0  0  0  0  0  0  0
   23.8507    9.4948    7.3893 H   0  0  0  0  0  0  0  0  0  0  0  0
   25.5127    8.8135    7.3893 H   0  0  0  0  0  0  0  0  0  0  0  0
   25.2424   11.0931    6.2717 H   0  0  0  0  0  0  0  0  0  0  0  0
   24.9144   11.7432    7.9361 H   0  0  0  0  0  0  0  0  0  0  0  0
   27.2870   13.2554    7.9149 H   0  0  0  0  0  0  0  0  0  0  0  0
   32.0057   12.6854    5.9216 H   0  0  0  0  0  0  0  0  0  0  0  0
   32.0076   13.9778    3.7881 H   0  0  0  0  0  0  0  0  0  0  0  0
   30.2591   15.7065    3.3923 H   0  0  0  0  0  0  0  0  0  0  0  0
   28.5324   16.1671    5.1193 H   0  0  0  0  0  0  0  0  0  0  0  0
   28.6538   15.0059    8.4844 H   0  0  0  0  0  0  0  0  0  0  0  0
   24.3592   14.5095    8.0749 H   0  0  0  0  0  0  0  0  0  0  0  0
   23.1651   15.1552   10.1907 H   0  0  0  0  0  0  0  0  0  0  0  0
   27.9209   16.6268    9.4138 H   0  0  0  0  0  0  0  0  0  0  0  0
   27.5710   17.0067   12.3639 H   0  0  0  0  0  0  0  0  0  0  0  0
   26.9574   18.4777   11.6476 H   0  0  0  0  0  0  0  0  0  0  0  0
   24.3196   18.1808   14.2500 H   0  0  0  0  0  0  0  0  0  0  0  0
   25.8959   16.6672   15.4083 H   0  0  0  0  0  0  0  0  0  0  0  0
   27.2667   17.7280   14.9420 H   0  0  0  0  0  0  0  0  0  0  0  0
   24.8643   18.4883   16.6780 H   0  0  0  0  0  0  0  0  0  0  0  0
   26.5750   18.2547   17.2179 H   0  0  0  0  0  0  0  0  0  0  0  0
   25.7819   21.4848   14.7064 H   0  0  0  0  0  0  0  0  0  0  0  0
   29.8076    9.7625    7.8867 H   0  0  0  0  0  0  0  0  0  0  0  0
  1  2  1  0
  2  3  1  0
  3  4  2  0
  4  5  1  0
  5  6  1  0
  6  7  2  0
  6  8  2  0
  6  9  1  0
  9 10  2  0
 10 11  1  0
 11 12  2  0
 12 13  1  0
 13 14  2  0
 14 15  1  0
 15 16  1  0
 16 17  2  0
 16 18  1  0
 18 19  2  0
 19 20  1  0
 20 21  2  0
 21 22  1  0
 22 23  2  0
 22 24  1  0
 24 25  1  0
 25 26  1  0
 26 27  1  0
 27 28  1  0
 28 29  1  0
 29 30  2  0
 29 31  1  0
 31 32  1  0
 32 33  2  0
 25 34  1  0
 34 35  2  0
  5 36  1  0
 36 37  2  0
 37  3  1  0
 14  9  1  0
 23 18  1  0
 32 26  1  0
 34 21  1  0
  1 38  1  0
  1 39  1  0
  1 40  1  0
  2 41  1  0
  2 42  1  0
  4 43  1  0
 10 44  1  0
 11 45  1  0
 12 46  1  0
 13 47  1  0
 15 48  1  0
 19 49  1  0
 20 50  1  0
 23 51  1  0
 24 52  1  0
 24 53  1  0
 26 54  1  1
 27 55  1  0
 27 56  1  0
 28 57  1  0
 28 58  1  0
 31 59  1  0
 36 60  1  0
M  END
>  <meeko>  (259) 
{"is_sidechain": [true], "free_energy": -13.5, "intermolecular_energy": 0.0, "internal_energy": -13.5, "cluster_size": 19, "cluster_id": 1, "rank_in_cluster": 1}

>  <_RMSD_MCS_to_ref>  (259) 
1.0021021588850638

$$$$
ligand
     RDKit          3D

 61 66  0  0  0  0  0  0  0  0999 V2000
   24.8710    9.6160    7.7820 C   0  0  0  0  0  0  0  0  0  0  0  0
   25.4240   10.9650    7.3490 C   0  0  0  0  0  0  0  0  0  0  0  0
   26.6540   11.3450    8.1000 C   0  0  0  0  0  0  0  0  0  0  0  0
   27.9570   11.3900    7.6460 C   0  0  0  0  0  0  0  0  0  0  0  0
   28.6770   11.7870    8.7340 N   0  0  0  0  0  0  0  0  0  0  0  0
   30.3110   12.1800    8.7690 S   0  0  0  0  0  6  0  0  0  0  0  0
   30.9460   11.0860    8.0570 O   0  0  0  0  0  0  0  0  0  0  0  0
   30.6200   12.4350   10.1650 O   0  0  0  0  0  0  0  0  0  0  0  0
   30.5140   13.5370    7.8720 O   0  0  0  0  0  0  0  0  0  0  0  0
   29.8030   13.6420    6.7000 C   0  0  0  0  0  0  0  0  0  0  0  0
   30.3900   13.1160    5.5450 C   0  0  0  0  0  0  0  0  0  0  0  0
   29.7240   13.2190    4.3310 C   0  0  0  0  0  0  0  0  0  0  0  0
   28.4780   13.8400    4.2850 C   0  0  0  0  0  0  0  0  0  0  0  0
   27.8940   14.3420    5.4660 C   0  0  0  0  0  0  0  0  0  0  0  0
   26.6560   14.9600    5.4930 C   0  0  0  0  0  0  0  0  0  0  0  0
   26.0740   15.4240    6.6130 N   0  0  0  0  0  0  0  0  0  0  0  0
   26.7580   15.2570    7.7580 C   0  0  0  0  0  0  0  0  0  0  0  0
   26.1070   15.6980    9.0070 C   0  0  0  0  0  0  0  0  0  0  0  0
   24.7600   15.3430    9.2920 C   0  0  0  0  0  0  0  0  0  0  0  0
   24.1180   15.7450   10.4690 C   0  0  0  0  0  0  0  0  0  0  0  0
   24.8480   16.5050   11.3600 C   0  0  0  0  0  0  0  0  0  0  0  0
   26.1670   16.8720   11.1220 C   0  0  0  0  0  0  0  0  0  0  0  0
   26.8050   16.4720    9.9580 C   0  0  0  0  0  0  0  0  0  0  0  0
   26.6750   17.7140   12.2450 C   0  0  0  0  0  0  0  0  0  0  0  0
   25.5610   17.6900   13.1840 N   0  0  0  0  0  0  0  0  0  0  0  0
   25.5350   18.5590   14.3540 C   0  0  2  0  0  0  0  0  0  0  0  0
   26.1340   19.9420   14.0970 C   0  0  0  0  0  0  0  0  0  0  0  0
   26.0030   20.7900   15.3520 C   0  0  0  0  0  0  0  0  0  0  0  0
   26.6560   20.1200   16.5380 C   0  0  0  0  0  0  0  0  0  0  0  0
   27.0600   20.7560   17.5080 O   0  0  0  0  0  0  0  0  0  0  0  0
   26.7080   18.7490   16.5210 N   0  0  0  0  0  0  0  0  0  0  0  0
   26.2170   17.8930   15.5600 C   0  0  0  0  0  0  0  0  0  0  0  0
   26.2540   16.6770   15.7400 O   0  0  0  0  0  0  0  0  0  0  0  0
   24.4440   17.0640   12.6540 C   0  0  0  0  0  0  0  0  0  0  0  0
   23.3250   16.9850   13.1250 O   0  0  0  0  0  0  0  0  0  0  0  0
   27.9830   14.6910    7.8440 N   0  0  0  0  0  0  0  0  0  0  0  0
   28.5410   14.2410    6.7020 C   0  0  0  0  0  0  0  0  0  0  0  0
   27.8300   12.0330    9.7660 C   0  0  0  0  0  0  0  0  0  0  0  0
   26.5920   11.7290    9.4300 N   0  0  0  0  0  0  0  0  0  0  0  0
   24.8497    9.5640    8.8806 H   0  0  0  0  0  0  0  0  0  0  0  0
   23.8507    9.4948    7.3893 H   0  0  0  0  0  0  0  0  0  0  0  0
   25.5127    8.8135    7.3893 H   0  0  0  0  0  0  0  0  0  0  0  0
   25.6652   10.9197    6.2767 H   0  0  0  0  0  0  0  0  0  0  0  0
   24.6561   11.7241    7.5590 H   0  0  0  0  0  0  0  0  0  0  0  0
   28.3294   11.1585    6.6372 H   0  0  0  0  0  0  0  0  0  0  0  0
   31.3725   12.6241    5.5978 H   0  0  0  0  0  0  0  0  0  0  0  0
   30.1763   12.8138    3.4138 H   0  0  0  0  0  0  0  0  0  0  0  0
   27.9488   13.9389    3.3257 H   0  0  0  0  0  0  0  0  0  0  0  0
   26.1161   15.0787    4.5420 H   0  0  0  0  0  0  0  0  0  0  0  0
   24.2047   14.7330    8.5643 H   0  0  0  0  0  0  0  0  0  0  0  0
   23.0741   15.4665   10.6754 H   0  0  0  0  0  0  0  0  0  0  0  0
   27.8518   16.7571    9.7765 H   0  0  0  0  0  0  0  0  0  0  0  0
   27.5808   17.2776   12.6912 H   0  0  0  0  0  0  0  0  0  0  0  0
   26.9671   18.7285   11.9360 H   0  0  0  0  0  0  0  0  0  0  0  0
   24.4711   18.7147   14.5862 H   0  0  0  0  0  0  0  0  0  0  0  0
   27.1969   19.8384   13.8333 H   0  0  0  0  0  0  0  0  0  0  0  0
   25.5972   20.4268   13.2682 H   0  0  0  0  0  0  0  0  0  0  0  0
   26.4864   21.7629   15.1791 H   0  0  0  0  0  0  0  0  0  0  0  0
   24.9333   20.9205   15.5726 H   0  0  0  0  0  0  0  0  0  0  0  0
   27.1715   18.3050   17.3265 H   0  0  0  0  0  0  0  0  0  0  0  0
   28.1341   12.4304   10.7456 H   0  0  0  0  0  0  0  0  0  0  0  0
  1  2  1  0
  2  3  1  0
  3  4  2  0
  4  5  1  0
  5  6  1  0
  6  7  2  0
  6  8  2  0
  6  9  1  0
  9 10  1  0
 10 11  2  0
 11 12  1  0
 12 13  2  0
 13 14  1  0
 14 15  2  0
 15 16  1  0
 16 17  2  0
 17 18  1  0
 18 19  2  0
 19 20  1  0
 20 21  2  0
 21 22  1  0
 22 23  2  0
 22 24  1  0
 24 25  1  0
 25 26  1  0
 26 27  1  0
 27 28  1  0
 28 29  1  0
 29 30  2  0
 29 31  1  0
 31 32  1  0
 32 33  2  0
 25 34  1  0
 34 35  2  0
 17 36  1  0
 36 37  2  0
  5 38  1  0
 38 39  2  0
 39  3  1  0
 37 10  1  0
 37 14  1  0
 23 18  1  0
 32 26  1  0
 34 21  1  0
  1 40  1  0
  1 41  1  0
  1 42  1  0
  2 43  1  0
  2 44  1  0
  4 45  1  0
 11 46  1  0
 12 47  1  0
 13 48  1  0
 15 49  1  0
 19 50  1  0
 20 51  1  0
 23 52  1  0
 24 53  1  0
 24 54  1  0
 26 55  1  1
 27 56  1  0
 27 57  1  0
 28 58  1  0
 28 59  1  0
 31 60  1  0
 38 61  1  0
M  END
>  <meeko>  (260) 
{"is_sidechain": [true], "free_energy": -13.5, "intermolecular_energy": 0.0, "internal_energy": -13.5, "cluster_size": 15, "cluster_id": 1, "rank_in_cluster": 1}

>  <_RMSD_MCS_to_ref>  (260) 
1.751433292748362

$$$$
ligand
     RDKit          3D

 63 68  0  0  0  0  0  0  0  0999 V2000
   24.8540    9.4020    7.6050 C   0  0  0  0  0  0  0  0  0  0  0  0
   25.5230   10.7550    7.4270 C   0  0  0  0  0  0  0  0  0  0  0  0
   25.0290   11.4730    6.2210 C   0  0  0  0  0  0  0  0  0  0  0  0
   25.4950   12.6430    5.6530 C   0  0  0  0  0  0  0  0  0  0  0  0
   24.6870   12.8370    4.5690 N   0  0  0  0  0  0  0  0  0  0  0  0
   24.5920   14.2550    3.6650 S   0  0  0  0  0  6  0  0  0  0  0  0
   25.7320   14.2080    2.7710 O   0  0  0  0  0  0  0  0  0  0  0  0
   23.2250   14.3450    3.1930 O   0  0  0  0  0  0  0  0  0  0  0  0
   24.8510   15.5300    4.8710 C   0  0  0  0  0  0  0  0  0  0  0  0
   24.2490   16.7770    4.6970 C   0  0  0  0  0  0  0  0  0  0  0  0
   24.5270   17.7960    5.6040 C   0  0  0  0  0  0  0  0  0  0  0  0
   25.4020   17.5650    6.6710 C   0  0  0  0  0  0  0  0  0  0  0  0
   25.9900   16.3020    6.8680 C   0  0  0  0  0  0  0  0  0  0  0  0
   26.9120   16.1310    7.9510 N   0  0  0  0  0  0  0  0  0  0  0  0
   28.2490   16.1950    7.6820 N   0  0  0  0  0  0  0  0  0  0  0  0
   28.8520   15.8500    8.8140 C   0  0  0  0  0  0  0  0  0  0  0  0
   27.9460   15.6140    9.8490 C   0  0  0  0  0  0  0  0  0  0  0  0
   26.6950   15.8430    9.3030 C   0  0  0  0  0  0  0  0  0  0  0  0
   25.4340   15.8910   10.0300 C   0  0  0  0  0  0  0  0  0  0  0  0
   24.2720   15.3370    9.4630 C   0  0  0  0  0  0  0  0  0  0  0  0
   23.0320   15.4060   10.1260 C   0  0  0  0  0  0  0  0  0  0  0  0
   22.9250   16.0360   11.3640 C   0  0  0  0  0  0  0  0  0  0  0  0
   24.0780   16.5750   11.9030 C   0  0  0  0  0  0  0  0  0  0  0  0
   25.3180   16.5140   11.2650 C   0  0  0  0  0  0  0  0  0  0  0  0
   26.3520   17.1700   12.1180 C   0  0  0  0  0  0  0  0  0  0  0  0
   25.6130   17.4750   13.3350 N   0  0  0  0  0  0  0  0  0  0  0  0
   26.2370   18.2140   14.4290 C   0  0  2  0  0  0  0  0  0  0  0  0
   25.6360   17.9280   15.8050 C   0  0  0  0  0  0  0  0  0  0  0  0
   26.4420   18.6650   16.8630 C   0  0  0  0  0  0  0  0  0  0  0  0
   26.4810   20.1490   16.5810 C   0  0  0  0  0  0  0  0  0  0  0  0
   26.7050   20.9770   17.4600 O   0  0  0  0  0  0  0  0  0  0  0  0
   26.3320   20.5330   15.2720 N   0  0  0  0  0  0  0  0  0  0  0  0
   26.2260   19.7270   14.1600 C   0  0  0  0  0  0  0  0  0  0  0  0
   26.2340   20.2200   13.0340 O   0  0  0  0  0  0  0  0  0  0  0  0
   24.2570   17.2500   13.1920 C   0  0  0  0  0  0  0  0  0  0  0  0
   23.3520   17.5190   13.9570 O   0  0  0  0  0  0  0  0  0  0  0  0
   25.6960   15.2780    5.9630 C   0  0  0  0  0  0  0  0  0  0  0  0
   23.7760   11.8310    4.5100 C   0  0  0  0  0  0  0  0  0  0  0  0
   23.9450   10.9920    5.5130 N   0  0  0  0  0  0  0  0  0  0  0  0
   24.7464    9.1845    8.6779 H   0  0  0  0  0  0  0  0  0  0  0  0
   23.8606    9.4192    7.1330 H   0  0  0  0  0  0  0  0  0  0  0  0
   25.4708    8.6230    7.1330 H   0  0  0  0  0  0  0  0  0  0  0  0
   25.3175   11.3711    8.3148 H   0  0  0  0  0  0  0  0  0  0  0  0
   26.6020   10.5835    7.2991 H   0  0  0  0  0  0  0  0  0  0  0  0
   26.3276   13.2748    5.9959 H   0  0  0  0  0  0  0  0  0  0  0  0
   23.5640   16.9524    3.8544 H   0  0  0  0  0  0  0  0  0  0  0  0
   24.0583   18.7836    5.4816 H   0  0  0  0  0  0  0  0  0  0  0  0
   25.6341   18.3843    7.3674 H   0  0  0  0  0  0  0  0  0  0  0  0
   29.9429   15.7604    8.9235 H   0  0  0  0  0  0  0  0  0  0  0  0
   28.1773   15.3102   10.8806 H   0  0  0  0  0  0  0  0  0  0  0  0
   24.3333   14.8406    8.4833 H   0  0  0  0  0  0  0  0  0  0  0  0
   22.1402   14.9588    9.6627 H   0  0  0  0  0  0  0  0  0  0  0  0
   21.9618   16.1018   11.8912 H   0  0  0  0  0  0  0  0  0  0  0  0
   27.1896   16.4869   12.3227 H   0  0  0  0  0  0  0  0  0  0  0  0
   26.8083   18.0547   11.6499 H   0  0  0  0  0  0  0  0  0  0  0  0
   27.2742   17.8489   14.4591 H   0  0  0  0  0  0  0  0  0  0  0  0
   24.5921   18.2738   15.8301 H   0  0  0  0  0  0  0  0  0  0  0  0
   25.6643   16.8466   16.0042 H   0  0  0  0  0  0  0  0  0  0  0  0
   25.9802   18.4983   17.8473 H   0  0  0  0  0  0  0  0  0  0  0  0
   27.4721   18.2794   16.8491 H   0  0  0  0  0  0  0  0  0  0  0  0
   26.2949   21.5479   15.1000 H   0  0  0  0  0  0  0  0  0  0  0  0
   26.1264   14.2759    6.1065 H   0  0  0  0  0  0  0  0  0  0  0  0
   23.0040   11.7303    3.7329 H   0  0  0  0  0  0  0  0  0  0  0  0
  1  2  1  0
  2  3  1  0
  3  4  2  0
  4  5  1  0
  5  6  1  0
  6  7  2  0
  6  8  2  0
  6  9  1  0
  9 10  2  0
 10 11  1  0
 11 12  2  0
 12 13  1  0
 13 14  1  0
 14 15  1  0
 15 16  2  0
 16 17  1  0
 17 18  2  0
 18 19  1  0
 19 20  2  0
 20 21  1  0
 21 22  2  0
 22 23  1  0
 23 24  2  0
 24 25  1  0
 25 26  1  0
 26 27  1  0
 27 28  1  0
 28 29  1  0
 29 30  1  0
 30 31  2  0
 30 32  1  0
 32 33  1  0
 33 34  2  0
 26 35  1  0
 35 36  2  0
 13 37  2  0
  5 38  1  0
 38 39  2  0
 39  3  1  0
 37  9  1  0
 18 14  1  0
 24 19  1  0
 33 27  1  0
 35 23  1  0
  1 40  1  0
  1 41  1  0
  1 42  1  0
  2 43  1  0
  2 44  1  0
  4 45  1  0
 10 46  1  0
 11 47  1  0
 12 48  1  0
 16 49  1  0
 17 50  1  0
 20 51  1  0
 21 52  1  0
 22 53  1  0
 25 54  1  0
 25 55  1  0
 27 56  1  1
 28 57  1  0
 28 58  1  0
 29 59  1  0
 29 60  1  0
 32 61  1  0
 37 62  1  0
 38 63  1  0
M  END
>  <meeko>  (261) 
{"is_sidechain": [true], "free_energy": -13.49, "intermolecular_energy": 0.0, "internal_energy": -13.49, "cluster_size": 15, "cluster_id": 1, "rank_in_cluster": 1}

>  <_RMSD_MCS_to_ref>  (261) 
0.9851469151575529

$$$$
ligand
     RDKit          3D

 61 66  0  0  0  0  0  0  0  0999 V2000
   24.8540    9.4020    7.6050 C   0  0  0  0  0  0  0  0  0  0  0  0
   25.5230   10.7550    7.4270 C   0  0  0  0  0  0  0  0  0  0  0  0
   25.1760   11.3830    6.1230 C   0  0  0  0  0  0  0  0  0  0  0  0
   24.4990   12.5620    5.8800 C   0  0  0  0  0  0  0  0  0  0  0  0
   24.4330   12.6310    4.5180 N   0  0  0  0  0  0  0  0  0  0  0  0
   23.7910   13.9100    3.6320 S   0  0  0  0  0  6  0  0  0  0  0  0
   24.3870   13.7470    2.3170 O   0  0  0  0  0  0  0  0  0  0  0  0
   22.3500   13.8330    3.7970 O   0  0  0  0  0  0  0  0  0  0  0  0
   24.3640   15.3130    4.2550 O   0  0  0  0  0  0  0  0  0  0  0  0
   25.2190   15.2740    5.3340 C   0  0  0  0  0  0  0  0  0  0  0  0
   24.6880   15.6410    6.5700 C   0  0  0  0  0  0  0  0  0  0  0  0
   25.5230   15.6340    7.6780 C   0  0  0  0  0  0  0  0  0  0  0  0
   25.0650   15.9900    9.0390 C   0  0  0  0  0  0  0  0  0  0  0  0
   23.8900   15.4230    9.6040 C   0  0  0  0  0  0  0  0  0  0  0  0
   23.4520   15.7580   10.8900 C   0  0  0  0  0  0  0  0  0  0  0  0
   24.2060   16.6660   11.6010 C   0  0  0  0  0  0  0  0  0  0  0  0
   25.3670   17.2370   11.0920 C   0  0  0  0  0  0  0  0  0  0  0  0
   25.8060   16.9070    9.8190 C   0  0  0  0  0  0  0  0  0  0  0  0
   25.9710   18.1620   12.0960 C   0  0  0  0  0  0  0  0  0  0  0  0
   25.0210   18.0880   13.2010 N   0  0  0  0  0  0  0  0  0  0  0  0
   25.2610   18.6580   14.5240 C   0  0  1  0  0  0  0  0  0  0  0  0
   26.4270   17.9510   15.2160 C   0  0  0  0  0  0  0  0  0  0  0  0
   26.5740   18.4710   16.6370 C   0  0  0  0  0  0  0  0  0  0  0  0
   26.7490   19.9690   16.6540 C   0  0  0  0  0  0  0  0  0  0  0  0
   27.4240   20.5440   17.5020 O   0  0  0  0  0  0  0  0  0  0  0  0
   26.0830   20.6750   15.6840 N   0  0  0  0  0  0  0  0  0  0  0  0
   25.5020   20.1760   14.5410 C   0  0  0  0  0  0  0  0  0  0  0  0
   25.1860   20.9400   13.6310 O   0  0  0  0  0  0  0  0  0  0  0  0
   24.0010   17.1820   12.9590 C   0  0  0  0  0  0  0  0  0  0  0  0
   23.1150   16.8340   13.7140 O   0  0  0  0  0  0  0  0  0  0  0  0
   26.8340   15.3060    7.5670 N   0  0  0  0  0  0  0  0  0  0  0  0
   27.3280   14.9710    6.3570 C   0  0  0  0  0  0  0  0  0  0  0  0
   28.6680   14.6380    6.2280 C   0  0  0  0  0  0  0  0  0  0  0  0
   29.2110   14.3010    4.9900 C   0  0  0  0  0  0  0  0  0  0  0  0
   28.3760   14.3130    3.8930 C   0  0  0  0  0  0  0  0  0  0  0  0
   27.0660   14.6310    3.9660 N   0  0  0  0  0  0  0  0  0  0  0  0
   26.5600   14.9430    5.1810 C   0  0  0  0  0  0  0  0  0  0  0  0
   25.1060   11.5810    3.9820 C   0  0  0  0  0  0  0  0  0  0  0  0
   25.5480   10.7840    4.9340 N   0  0  0  0  0  0  0  0  0  0  0  0
   24.7464    9.1845    8.6779 H   0  0  0  0  0  0  0  0  0  0  0  0
   23.8606    9.4192    7.1330 H   0  0  0  0  0  0  0  0  0  0  0  0
   25.4708    8.6230    7.1330 H   0  0  0  0  0  0  0  0  0  0  0  0
   25.1977   11.4213    8.2395 H   0  0  0  0  0  0  0  0  0  0  0  0
   26.6119   10.6005    7.4499 H   0  0  0  0  0  0  0  0  0  0  0  0
   24.1042   13.2797    6.6142 H   0  0  0  0  0  0  0  0  0  0  0  0
   23.6307   15.9296    6.6645 H   0  0  0  0  0  0  0  0  0  0  0  0
   23.3084   14.7001    9.0131 H   0  0  0  0  0  0  0  0  0  0  0  0
   22.5408   15.3136   11.3169 H   0  0  0  0  0  0  0  0  0  0  0  0
   26.7264   17.3565    9.4179 H   0  0  0  0  0  0  0  0  0  0  0  0
   26.9688   17.8172   12.4052 H   0  0  0  0  0  0  0  0  0  0  0  0
   26.1252   19.1828   11.7164 H   0  0  0  0  0  0  0  0  0  0  0  0
   24.3230   18.4904   15.0735 H   0  0  0  0  0  0  0  0  0  0  0  0
   26.2344   16.8683   15.2414 H   0  0  0  0  0  0  0  0  0  0  0  0
   27.3544   18.1494   14.6588 H   0  0  0  0  0  0  0  0  0  0  0  0
   25.6726   18.2085   17.2102 H   0  0  0  0  0  0  0  0  0  0  0  0
   27.4666   18.0108   17.0858 H   0  0  0  0  0  0  0  0  0  0  0  0
   26.0098   21.6923   15.8276 H   0  0  0  0  0  0  0  0  0  0  0  0
   29.3135   14.6400    7.1187 H   0  0  0  0  0  0  0  0  0  0  0  0
   30.2734   14.0335    4.8908 H   0  0  0  0  0  0  0  0  0  0  0  0
   28.7973   14.0509    2.9113 H   0  0  0  0  0  0  0  0  0  0  0  0
   25.2606   11.4183    2.9051 H   0  0  0  0  0  0  0  0  0  0  0  0
  1  2  1  0
  2  3  1  0
  3  4  2  0
  4  5  1  0
  5  6  1  0
  6  7  2  0
  6  8  2  0
  6  9  1  0
  9 10  1  0
 10 11  2  0
 11 12  1  0
 12 13  1  0
 13 14  2  0
 14 15  1  0
 15 16  2  0
 16 17  1  0
 17 18  2  0
 17 19  1  0
 19 20  1  0
 20 21  1  0
 21 22  1  0
 22 23  1  0
 23 24  1  0
 24 25  2  0
 24 26  1  0
 26 27  1  0
 27 28  2  0
 20 29  1  0
 29 30  2  0
 12 31  2  0
 31 32  1  0
 32 33  2  0
 33 34  1  0
 34 35  2  0
 35 36  1  0
 36 37  2  0
  5 38  1  0
 38 39  2  0
 39  3  1  0
 37 10  1  0
 18 13  1  0
 27 21  1  0
 37 32  1  0
 29 16  1  0
  1 40  1  0
  1 41  1  0
  1 42  1  0
  2 43  1  0
  2 44  1  0
  4 45  1  0
 11 46  1  0
 14 47  1  0
 15 48  1  0
 18 49  1  0
 19 50  1  0
 19 51  1  0
 21 52  1  1
 22 53  1  0
 22 54  1  0
 23 55  1  0
 23 56  1  0
 26 57  1  0
 33 58  1  0
 34 59  1  0
 35 60  1  0
 38 61  1  0
M  END
>  <meeko>  (262) 
{"is_sidechain": [true], "free_energy": -13.49, "intermolecular_energy": 0.0, "internal_energy": -13.49, "cluster_size": 12, "cluster_id": 1, "rank_in_cluster": 1}

>  <_RMSD_MCS_to_ref>  (262) 
0.49527971894677797

$$$$
ligand
     RDKit          3D

 52 56  0  0  0  0  0  0  0  0999 V2000
   24.8710    9.6160    7.7820 C   0  0  0  0  0  0  0  0  0  0  0  0
   25.4240   10.9650    7.3490 C   0  0  0  0  0  0  0  0  0  0  0  0
   26.8900   11.0720    7.5790 C   0  0  0  0  0  0  0  0  0  0  0  0
   27.6580   12.2040    7.7730 C   0  0  0  0  0  0  0  0  0  0  0  0
   28.9260   11.7250    7.9290 N   0  0  0  0  0  0  0  0  0  0  0  0
   30.2970   12.6040    8.3650 S   0  0  0  0  0  6  0  0  0  0  0  0
   31.2980   11.5820    8.6130 O   0  0  0  0  0  0  0  0  0  0  0  0
   30.4930   13.5880    7.3160 O   0  0  0  0  0  0  0  0  0  0  0  0
   30.0130   13.3520    9.7790 O   0  0  0  0  0  0  0  0  0  0  0  0
   28.9440   14.1100    9.9590 C   0  0  0  0  0  0  0  0  0  0  0  0
   28.9120   15.4050    9.7580 N   0  0  0  0  0  0  0  0  0  0  0  0
   27.6630   15.9330    9.9910 N   0  0  0  0  0  0  0  0  0  0  0  0
   26.7810   15.0260   10.3690 C   0  0  0  0  0  0  0  0  0  0  0  0
   25.3670   15.3080   10.6640 C   0  0  0  0  0  0  0  0  0  0  0  0
   24.3080   14.9050    9.8210 C   0  0  0  0  0  0  0  0  0  0  0  0
   22.9610   15.1980   10.1200 C   0  0  0  0  0  0  0  0  0  0  0  0
   22.6280   15.9030   11.2720 C   0  0  0  0  0  0  0  0  0  0  0  0
   23.6670   16.2850   12.0980 C   0  0  0  0  0  0  0  0  0  0  0  0
   25.0070   16.0000   11.8210 C   0  0  0  0  0  0  0  0  0  0  0  0
   25.8670   16.5720   12.9060 C   0  0  0  0  0  0  0  0  0  0  0  0
   24.8920   17.1300   13.8350 N   0  0  0  0  0  0  0  0  0  0  0  0
   25.2520   18.0370   14.9200 C   0  0  1  0  0  0  0  0  0  0  0  0
   26.3130   17.4490   15.8440 C   0  0  0  0  0  0  0  0  0  0  0  0
   26.5770   18.4160   16.9900 C   0  0  0  0  0  0  0  0  0  0  0  0
   26.9760   19.7780   16.4720 C   0  0  0  0  0  0  0  0  0  0  0  0
   27.7950   20.4860   17.0490 O   0  0  0  0  0  0  0  0  0  0  0  0
   26.3580   20.2020   15.3220 N   0  0  0  0  0  0  0  0  0  0  0  0
   25.7430   19.3970   14.3920 C   0  0  0  0  0  0  0  0  0  0  0  0
   25.6190   19.7750   13.2290 O   0  0  0  0  0  0  0  0  0  0  0  0
   23.5990   17.0410   13.3520 C   0  0  0  0  0  0  0  0  0  0  0  0
   22.5810   17.4930   13.8420 O   0  0  0  0  0  0  0  0  0  0  0  0
   27.4490   13.4370   10.4400 S   0  0  0  0  0  0  0  0  0  0  0  0
   28.9040   10.3690    7.8590 C   0  0  0  0  0  0  0  0  0  0  0  0
   27.6780    9.9380    7.6410 N   0  0  0  0  0  0  0  0  0  0  0  0
   24.8497    9.5640    8.8806 H   0  0  0  0  0  0  0  0  0  0  0  0
   23.8507    9.4948    7.3893 H   0  0  0  0  0  0  0  0  0  0  0  0
   25.5127    8.8135    7.3893 H   0  0  0  0  0  0  0  0  0  0  0  0
   25.2228   11.1024    6.2763 H   0  0  0  0  0  0  0  0  0  0  0  0
   24.9303   11.7414    7.9519 H   0  0  0  0  0  0  0  0  0  0  0  0
   27.3237   13.2517    7.7963 H   0  0  0  0  0  0  0  0  0  0  0  0
   24.5408   14.3454    8.9030 H   0  0  0  0  0  0  0  0  0  0  0  0
   22.1664   14.8659    9.4357 H   0  0  0  0  0  0  0  0  0  0  0  0
   21.5829   16.1457   11.5145 H   0  0  0  0  0  0  0  0  0  0  0  0
   26.4693   15.7880   13.3882 H   0  0  0  0  0  0  0  0  0  0  0  0
   26.5918   17.3140   12.5398 H   0  0  0  0  0  0  0  0  0  0  0  0
   24.3281   18.1857   15.4981 H   0  0  0  0  0  0  0  0  0  0  0  0
   25.9572   16.4896   16.2478 H   0  0  0  0  0  0  0  0  0  0  0  0
   27.2427   17.2857   15.2792 H   0  0  0  0  0  0  0  0  0  0  0  0
   25.6631   18.5151   17.5941 H   0  0  0  0  0  0  0  0  0  0  0  0
   27.4022   18.0186   17.5992 H   0  0  0  0  0  0  0  0  0  0  0  0
   26.3546   21.2156   15.1389 H   0  0  0  0  0  0  0  0  0  0  0  0
   29.7861    9.7211    7.9689 H   0  0  0  0  0  0  0  0  0  0  0  0
  1  2  1  0
  2  3  1  0
  3  4  2  0
  4  5  1  0
  5  6  1  0
  6  7  2  0
  6  8  2  0
  6  9  1  0
  9 10  1  0
 10 11  2  0
 11 12  1  0
 12 13  2  0
 13 14  1  0
 14 15  2  0
 15 16  1  0
 16 17  2  0
 17 18  1  0
 18 19  2  0
 19 20  1  0
 20 21  1  0
 21 22  1  0
 22 23  1  0
 23 24  1  0
 24 25  1  0
 25 26  2  0
 25 27  1  0
 27 28  1  0
 28 29  2  0
 21 30  1  0
 30 31  2  0
 13 32  1  0
  5 33  1  0
 33 34  2  0
 34  3  1  0
 32 10  1  0
 19 14  1  0
 28 22  1  0
 30 18  1  0
  1 35  1  0
  1 36  1  0
  1 37  1  0
  2 38  1  0
  2 39  1  0
  4 40  1  0
 15 41  1  0
 16 42  1  0
 17 43  1  0
 20 44  1  0
 20 45  1  0
 22 46  1  1
 23 47  1  0
 23 48  1  0
 24 49  1  0
 24 50  1  0
 27 51  1  0
 33 52  1  0
M  END
>  <meeko>  (263) 
{"is_sidechain": [true], "free_energy": -13.48, "intermolecular_energy": 0.0, "internal_energy": -13.48, "cluster_size": 15, "cluster_id": 1, "rank_in_cluster": 1}

>  <_RMSD_MCS_to_ref>  (263) 
0.9724134065989286

$$$$
ligand
     RDKit          3D

 54 58  0  0  0  0  0  0  0  0999 V2000
   24.8710    9.6160    7.7820 C   0  0  0  0  0  0  0  0  0  0  0  0
   25.4240   10.9650    7.3490 C   0  0  0  0  0  0  0  0  0  0  0  0
   26.8460   11.1460    7.7490 C   0  0  0  0  0  0  0  0  0  0  0  0
   27.3650   11.8430    8.8210 C   0  0  0  0  0  0  0  0  0  0  0  0
   28.7140   11.6550    8.7230 N   0  0  0  0  0  0  0  0  0  0  0  0
   29.8900   12.4520    9.6290 S   0  0  0  0  0  6  0  0  0  0  0  0
   31.1520   12.0100    9.0660 O   0  0  0  0  0  0  0  0  0  0  0  0
   29.5420   12.1740   11.0100 O   0  0  0  0  0  0  0  0  0  0  0  0
   29.6900   14.0340    9.3290 O   0  0  0  0  0  0  0  0  0  0  0  0
   28.6200   14.6970    9.7840 C   0  0  0  0  0  0  0  0  0  0  0  0
   27.2900   14.2920    9.9910 C   0  0  0  0  0  0  0  0  0  0  0  0
   26.6580   15.4140   10.4920 C   0  0  0  0  0  0  0  0  0  0  0  0
   25.2820   15.6380   10.8960 C   0  0  0  0  0  0  0  0  0  0  0  0
   24.2230   15.1510   10.1100 C   0  0  0  0  0  0  0  0  0  0  0  0
   22.8800   15.3770   10.4700 C   0  0  0  0  0  0  0  0  0  0  0  0
   22.5670   16.0870   11.6270 C   0  0  0  0  0  0  0  0  0  0  0  0
   23.6220   16.5420   12.3960 C   0  0  0  0  0  0  0  0  0  0  0  0
   24.9590   16.3270   12.0560 C   0  0  0  0  0  0  0  0  0  0  0  0
   25.8440   16.9240   13.1040 C   0  0  0  0  0  0  0  0  0  0  0  0
   24.8920   17.4460   14.0740 N   0  0  0  0  0  0  0  0  0  0  0  0
   25.2600   18.3630   15.1470 C   0  0  1  0  0  0  0  0  0  0  0  0
   26.3030   17.7710   16.0900 C   0  0  0  0  0  0  0  0  0  0  0  0
   26.5670   18.7470   17.2260 C   0  0  0  0  0  0  0  0  0  0  0  0
   26.9770   20.1020   16.6990 C   0  0  0  0  0  0  0  0  0  0  0  0
   27.8070   20.8060   17.2690 O   0  0  0  0  0  0  0  0  0  0  0  0
   26.3640   20.5250   15.5480 N   0  0  0  0  0  0  0  0  0  0  0  0
   25.7820   19.7050   14.6080 C   0  0  0  0  0  0  0  0  0  0  0  0
   25.7220   20.0530   13.4300 O   0  0  0  0  0  0  0  0  0  0  0  0
   23.5810   17.3000   13.6490 C   0  0  0  0  0  0  0  0  0  0  0  0
   22.5700   17.7150   14.1830 O   0  0  0  0  0  0  0  0  0  0  0  0
   27.6180   16.3950   10.5040 N   0  0  0  0  0  0  0  0  0  0  0  0
   28.8310   15.9710   10.1080 N   0  0  0  0  0  0  0  0  0  0  0  0
   28.9830   10.9500    7.5940 C   0  0  0  0  0  0  0  0  0  0  0  0
   27.8640   10.5990    6.9920 N   0  0  0  0  0  0  0  0  0  0  0  0
   24.8497    9.5640    8.8806 H   0  0  0  0  0  0  0  0  0  0  0  0
   23.8507    9.4948    7.3893 H   0  0  0  0  0  0  0  0  0  0  0  0
   25.5127    8.8135    7.3893 H   0  0  0  0  0  0  0  0  0  0  0  0
   25.3517   11.0422    6.2541 H   0  0  0  0  0  0  0  0  0  0  0  0
   24.8318   11.7473    7.8463 H   0  0  0  0  0  0  0  0  0  0  0  0
   26.8169   12.4188    9.5813 H   0  0  0  0  0  0  0  0  0  0  0  0
   26.8503   13.3025    9.7973 H   0  0  0  0  0  0  0  0  0  0  0  0
   24.4476   14.5822    9.1957 H   0  0  0  0  0  0  0  0  0  0  0  0
   22.0717   14.9897    9.8323 H   0  0  0  0  0  0  0  0  0  0  0  0
   21.5232   16.2778   11.9169 H   0  0  0  0  0  0  0  0  0  0  0  0
   26.4921   16.1595   13.5573 H   0  0  0  0  0  0  0  0  0  0  0  0
   26.5278   17.6904   12.7103 H   0  0  0  0  0  0  0  0  0  0  0  0
   24.3315   18.5363   15.7108 H   0  0  0  0  0  0  0  0  0  0  0  0
   25.9296   16.8215   16.5010 H   0  0  0  0  0  0  0  0  0  0  0  0
   27.2366   17.5879   15.5378 H   0  0  0  0  0  0  0  0  0  0  0  0
   25.6506   18.8572   17.8244 H   0  0  0  0  0  0  0  0  0  0  0  0
   27.3876   18.3503   17.8419 H   0  0  0  0  0  0  0  0  0  0  0  0
   26.3367   21.5395   15.3722 H   0  0  0  0  0  0  0  0  0  0  0  0
   27.4269   17.3659   10.7898 H   0  0  0  0  0  0  0  0  0  0  0  0
   29.9929   10.7061    7.2325 H   0  0  0  0  0  0  0  0  0  0  0  0
  1  2  1  0
  2  3  1  0
  3  4  2  0
  4  5  1  0
  5  6  1  0
  6  7  2  0
  6  8  2  0
  6  9  1  0
  9 10  1  0
 10 11  1  0
 11 12  2  0
 12 13  1  0
 13 14  2  0
 14 15  1  0
 15 16  2  0
 16 17  1  0
 17 18  2  0
 18 19  1  0
 19 20  1  0
 20 21  1  0
 21 22  1  0
 22 23  1  0
 23 24  1  0
 24 25  2  0
 24 26  1  0
 26 27  1  0
 27 28  2  0
 20 29  1  0
 29 30  2  0
 12 31  1  0
 31 32  1  0
  5 33  1  0
 33 34  2  0
 34  3  1  0
 32 10  2  0
 18 13  1  0
 27 21  1  0
 29 17  1  0
  1 35  1  0
  1 36  1  0
  1 37  1  0
  2 38  1  0
  2 39  1  0
  4 40  1  0
 11 41  1  0
 14 42  1  0
 15 43  1  0
 16 44  1  0
 19 45  1  0
 19 46  1  0
 21 47  1  1
 22 48  1  0
 22 49  1  0
 23 50  1  0
 23 51  1  0
 26 52  1  0
 31 53  1  0
 33 54  1  0
M  END
>  <meeko>  (264) 
{"is_sidechain": [true], "free_energy": -13.48, "intermolecular_energy": 0.0, "internal_energy": -13.48, "cluster_size": 15, "cluster_id": 1, "rank_in_cluster": 1}

>  <_RMSD_MCS_to_ref>  (264) 
1.1088981518205863

$$$$
ligand
     RDKit          3D

 56 60  0  0  0  0  0  0  0  0999 V2000
   24.8710    9.6160    7.7820 C   0  0  0  0  0  0  0  0  0  0  0  0
   25.4240   10.9650    7.3490 C   0  0  0  0  0  0  0  0  0  0  0  0
   26.8230   11.1720    7.8120 C   0  0  0  0  0  0  0  0  0  0  0  0
   27.2770   11.7780    8.9670 C   0  0  0  0  0  0  0  0  0  0  0  0
   28.6350   11.6590    8.8970 N   0  0  0  0  0  0  0  0  0  0  0  0
   29.7440   12.4270    9.9070 S   0  0  0  0  0  6  0  0  0  0  0  0
   29.3000   12.1150   11.2520 O   0  0  0  0  0  0  0  0  0  0  0  0
   31.0440   12.0120    9.4190 O   0  0  0  0  0  0  0  0  0  0  0  0
   29.5620   14.0250    9.6470 O   0  0  0  0  0  0  0  0  0  0  0  0
   28.4760   14.5340    8.9890 C   0  0  0  0  0  0  0  0  0  0  0  0
   28.3980   14.8410    7.6370 C   0  0  0  0  0  0  0  0  0  0  0  0
   27.2870   15.3390    7.0450 N   0  0  0  0  0  0  0  0  0  0  0  0
   26.2040   15.5340    7.8340 C   0  0  0  0  0  0  0  0  0  0  0  0
   26.1690   15.2660    9.2000 C   0  0  0  0  0  0  0  0  0  0  0  0
   24.9710   15.5120   10.0010 C   0  0  0  0  0  0  0  0  0  0  0  0
   23.7230   14.9730    9.6240 C   0  0  0  0  0  0  0  0  0  0  0  0
   22.5620   15.1860   10.3930 C   0  0  0  0  0  0  0  0  0  0  0  0
   22.6150   15.9430   11.5600 C   0  0  0  0  0  0  0  0  0  0  0  0
   23.8410   16.4720   11.9150 C   0  0  0  0  0  0  0  0  0  0  0  0
   25.0010   16.2730   11.1650 C   0  0  0  0  0  0  0  0  0  0  0  0
   26.1470   16.9760   11.8190 C   0  0  0  0  0  0  0  0  0  0  0  0
   25.5170   17.6420   12.9510 N   0  0  0  0  0  0  0  0  0  0  0  0
   26.2650   18.2510   14.0440 C   0  0  2  0  0  0  0  0  0  0  0  0
   25.8120   17.7490   15.4120 C   0  0  0  0  0  0  0  0  0  0  0  0
   26.6920   18.3600   16.4920 C   0  0  0  0  0  0  0  0  0  0  0  0
   26.6880   19.8690   16.4090 C   0  0  0  0  0  0  0  0  0  0  0  0
   26.7150   20.5830   17.4050 O   0  0  0  0  0  0  0  0  0  0  0  0
   26.6630   20.4130   15.1490 N   0  0  0  0  0  0  0  0  0  0  0  0
   26.1780   19.7870   14.0250 C   0  0  0  0  0  0  0  0  0  0  0  0
   25.7010   20.4460   13.1030 O   0  0  0  0  0  0  0  0  0  0  0  0
   24.1790   17.2990   13.0780 C   0  0  0  0  0  0  0  0  0  0  0  0
   23.4090   17.6060   13.9670 O   0  0  0  0  0  0  0  0  0  0  0  0
   27.3400   14.7510    9.7720 C   0  0  0  0  0  0  0  0  0  0  0  0
   28.9710   11.0840    7.7130 C   0  0  0  0  0  0  0  0  0  0  0  0
   27.8890   10.7520    7.0390 N   0  0  0  0  0  0  0  0  0  0  0  0
   24.8497    9.5640    8.8806 H   0  0  0  0  0  0  0  0  0  0  0  0
   23.8507    9.4948    7.3893 H   0  0  0  0  0  0  0  0  0  0  0  0
   25.5127    8.8135    7.3893 H   0  0  0  0  0  0  0  0  0  0  0  0
   25.4020   11.0212    6.2507 H   0  0  0  0  0  0  0  0  0  0  0  0
   24.7983   11.7483    7.8017 H   0  0  0  0  0  0  0  0  0  0  0  0
   26.6803   12.2491    9.7620 H   0  0  0  0  0  0  0  0  0  0  0  0
   29.2876   14.6702    7.0129 H   0  0  0  0  0  0  0  0  0  0  0  0
   25.2914   15.9304    7.3648 H   0  0  0  0  0  0  0  0  0  0  0  0
   23.6547   14.3709    8.7060 H   0  0  0  0  0  0  0  0  0  0  0  0
   21.6055   14.7504   10.0685 H   0  0  0  0  0  0  0  0  0  0  0  0
   21.7182   16.1129   12.1739 H   0  0  0  0  0  0  0  0  0  0  0  0
   26.9104   16.2594   12.1562 H   0  0  0  0  0  0  0  0  0  0  0  0
   26.6733   17.6684   11.1455 H   0  0  0  0  0  0  0  0  0  0  0  0
   27.3099   17.9476   13.8820 H   0  0  0  0  0  0  0  0  0  0  0  0
   24.7655   18.0420   15.5822 H   0  0  0  0  0  0  0  0  0  0  0  0
   25.8956   16.6527   15.4469 H   0  0  0  0  0  0  0  0  0  0  0  0
   26.3145   18.0536   17.4787 H   0  0  0  0  0  0  0  0  0  0  0  0
   27.7227   18.0051   16.3446 H   0  0  0  0  0  0  0  0  0  0  0  0
   27.0373   21.3660   15.0366 H   0  0  0  0  0  0  0  0  0  0  0  0
   27.3647   14.5158   10.8463 H   0  0  0  0  0  0  0  0  0  0  0  0
   30.0017   10.9189    7.3659 H   0  0  0  0  0  0  0  0  0  0  0  0
  1  2  1  0
  2  3  1  0
  3  4  2  0
  4  5  1  0
  5  6  1  0
  6  7  2  0
  6  8  2  0
  6  9  1  0
  9 10  1  0
 10 11  2  0
 11 12  1  0
 12 13  2  0
 13 14  1  0
 14 15  1  0
 15 16  2  0
 16 17  1  0
 17 18  2  0
 18 19  1  0
 19 20  2  0
 20 21  1  0
 21 22  1  0
 22 23  1  0
 23 24  1  0
 24 25  1  0
 25 26  1  0
 26 27  2  0
 26 28  1  0
 28 29  1  0
 29 30  2  0
 22 31  1  0
 31 32  2  0
 14 33  2  0
  5 34  1  0
 34 35  2  0
 35  3  1  0
 33 10  1  0
 20 15  1  0
 29 23  1  0
 31 19  1  0
  1 36  1  0
  1 37  1  0
  1 38  1  0
  2 39  1  0
  2 40  1  0
  4 41  1  0
 11 42  1  0
 13 43  1  0
 16 44  1  0
 17 45  1  0
 18 46  1  0
 21 47  1  0
 21 48  1  0
 23 49  1  6
 24 50  1  0
 24 51  1  0
 25 52  1  0
 25 53  1  0
 28 54  1  0
 33 55  1  0
 34 56  1  0
M  END
>  <meeko>  (265) 
{"is_sidechain": [true], "free_energy": -13.47, "intermolecular_energy": 0.0, "internal_energy": -13.47, "cluster_size": 17, "cluster_id": 1, "rank_in_cluster": 1}

>  <_RMSD_MCS_to_ref>  (265) 
1.1201102624295523

$$$$
ligand
     RDKit          3D

 59 64  0  0  0  0  0  0  0  0999 V2000
   24.8540    9.4020    7.6050 C   0  0  0  0  0  0  0  0  0  0  0  0
   25.5230   10.7550    7.4270 C   0  0  0  0  0  0  0  0  0  0  0  0
   27.0080   10.6530    7.4290 C   0  0  0  0  0  0  0  0  0  0  0  0
   27.9410   11.5670    6.9800 C   0  0  0  0  0  0  0  0  0  0  0  0
   29.1420   10.9730    7.2450 N   0  0  0  0  0  0  0  0  0  0  0  0
   30.6520   11.5560    6.8130 S   0  0  0  0  0  6  0  0  0  0  0  0
   31.5260   10.4020    6.7190 O   0  0  0  0  0  0  0  0  0  0  0  0
   30.4370   12.4650    5.7030 O   0  0  0  0  0  0  0  0  0  0  0  0
   31.2950   12.5310    8.0930 C   0  0  0  0  0  0  0  0  0  0  0  0
   32.5730   12.4070    8.5090 N   0  0  0  0  0  0  0  0  0  0  0  0
   32.6890   13.3310    9.4780 N   0  0  0  0  0  0  0  0  0  0  0  0
   31.5430   14.0310    9.6940 C   0  0  0  0  0  0  0  0  0  0  0  0
   30.6030   13.5320    8.8180 C   0  0  0  0  0  0  0  0  0  0  0  0
   29.2260   13.9920    8.7070 C   0  0  0  0  0  0  0  0  0  0  0  0
   28.2330   14.1420    9.6440 C   0  0  0  0  0  0  0  0  0  0  0  0
   27.1480   14.6230    8.9420 N   0  0  0  0  0  0  0  0  0  0  0  0
   25.8500   14.9410    9.4200 C   0  0  0  0  0  0  0  0  0  0  0  0
   24.7050   14.3860    8.8110 C   0  0  0  0  0  0  0  0  0  0  0  0
   23.4110   14.6870    9.2800 C   0  0  0  0  0  0  0  0  0  0  0  0
   23.2300   15.5450   10.3610 C   0  0  0  0  0  0  0  0  0  0  0  0
   24.3630   16.0840   10.9410 C   0  0  0  0  0  0  0  0  0  0  0  0
   25.6600   15.8040   10.4980 C   0  0  0  0  0  0  0  0  0  0  0  0
   26.6380   16.5360   11.3670 C   0  0  0  0  0  0  0  0  0  0  0  0
   25.7780   17.3030   12.2600 N   0  0  0  0  0  0  0  0  0  0  0  0
   26.2670   17.9710   13.4600 C   0  0  2  0  0  0  0  0  0  0  0  0
   25.7160   17.3510   14.7410 C   0  0  0  0  0  0  0  0  0  0  0  0
   26.3360   18.0410   15.9450 C   0  0  0  0  0  0  0  0  0  0  0  0
   26.1020   19.5330   15.8990 C   0  0  0  0  0  0  0  0  0  0  0  0
   25.9330   20.2020   16.9140 O   0  0  0  0  0  0  0  0  0  0  0  0
   26.1150   20.1190   14.6580 N   0  0  0  0  0  0  0  0  0  0  0  0
   25.9470   19.4760   13.4530 C   0  0  0  0  0  0  0  0  0  0  0  0
   25.5680   20.1030   12.4660 O   0  0  0  0  0  0  0  0  0  0  0  0
   24.4410   16.9980   12.0850 C   0  0  0  0  0  0  0  0  0  0  0  0
   23.4900   17.3910   12.7320 O   0  0  0  0  0  0  0  0  0  0  0  0
   27.4910   14.7690    7.6400 N   0  0  0  0  0  0  0  0  0  0  0  0
   28.7520   14.3910    7.4890 N   0  0  0  0  0  0  0  0  0  0  0  0
   28.9240    9.7390    7.7680 C   0  0  0  0  0  0  0  0  0  0  0  0
   27.6340    9.5230    7.9180 N   0  0  0  0  0  0  0  0  0  0  0  0
   24.7464    9.1845    8.6779 H   0  0  0  0  0  0  0  0  0  0  0  0
   23.8606    9.4192    7.1330 H   0  0  0  0  0  0  0  0  0  0  0  0
   25.4708    8.6230    7.1330 H   0  0  0  0  0  0  0  0  0  0  0  0
   25.1990   11.1870    6.4687 H   0  0  0  0  0  0  0  0  0  0  0  0
   25.2273   11.3918    8.2738 H   0  0  0  0  0  0  0  0  0  0  0  0
   27.7588   12.5475    6.5159 H   0  0  0  0  0  0  0  0  0  0  0  0
   33.5592   13.4930   10.0047 H   0  0  0  0  0  0  0  0  0  0  0  0
   31.3950   14.8387   10.4259 H   0  0  0  0  0  0  0  0  0  0  0  0
   28.2908   13.9254   10.7209 H   0  0  0  0  0  0  0  0  0  0  0  0
   24.8246   13.7061    7.9546 H   0  0  0  0  0  0  0  0  0  0  0  0
   22.5353   14.2396    8.7871 H   0  0  0  0  0  0  0  0  0  0  0  0
   22.2251   15.7846   10.7388 H   0  0  0  0  0  0  0  0  0  0  0  0
   27.2671   15.8328   11.9324 H   0  0  0  0  0  0  0  0  0  0  0  0
   27.3378   17.1639   10.7961 H   0  0  0  0  0  0  0  0  0  0  0  0
   27.3583   17.8339   13.4459 H   0  0  0  0  0  0  0  0  0  0  0  0
   24.6235   17.4765   14.7687 H   0  0  0  0  0  0  0  0  0  0  0  0
   25.9626   16.2793   14.7653 H   0  0  0  0  0  0  0  0  0  0  0  0
   25.8855   17.6351   16.8628 H   0  0  0  0  0  0  0  0  0  0  0  0
   27.4205   17.8575   15.9319 H   0  0  0  0  0  0  0  0  0  0  0  0
   26.2648   21.1375   14.6255 H   0  0  0  0  0  0  0  0  0  0  0  0
   29.7146    9.0204    8.0297 H   0  0  0  0  0  0  0  0  0  0  0  0
  1  2  1  0
  2  3  1  0
  3  4  2  0
  4  5  1  0
  5  6  1  0
  6  7  2  0
  6  8  2  0
  6  9  1  0
  9 10  2  0
 10 11  1  0
 11 12  1  0
 12 13  2  0
 13 14  1  0
 14 15  2  0
 15 16  1  0
 16 17  1  0
 17 18  2  0
 18 19  1  0
 19 20  2  0
 20 21  1  0
 21 22  2  0
 22 23  1  0
 23 24  1  0
 24 25  1  0
 25 26  1  0
 26 27  1  0
 27 28  1  0
 28 29  2  0
 28 30  1  0
 30 31  1  0
 31 32  2  0
 24 33  1  0
 33 34  2  0
 16 35  1  0
 35 36  2  0
  5 37  1  0
 37 38  2  0
 38  3  1  0
 13  9  1  0
 36 14  1  0
 22 17  1  0
 31 25  1  0
 33 21  1  0
  1 39  1  0
  1 40  1  0
  1 41  1  0
  2 42  1  0
  2 43  1  0
  4 44  1  0
 11 45  1  0
 12 46  1  0
 15 47  1  0
 18 48  1  0
 19 49  1  0
 20 50  1  0
 23 51  1  0
 23 52  1  0
 25 53  1  1
 26 54  1  0
 26 55  1  0
 27 56  1  0
 27 57  1  0
 30 58  1  0
 37 59  1  0
M  END
>  <meeko>  (266) 
{"is_sidechain": [true], "free_energy": -13.46, "intermolecular_energy": 0.0, "internal_energy": -13.46, "cluster_size": 20, "cluster_id": 1, "rank_in_cluster": 1}

>  <_RMSD_MCS_to_ref>  (266) 
1.362939307363154

$$$$
ligand
     RDKit          3D

 54 58  0  0  0  0  0  0  0  0999 V2000
   24.8540    9.4020    7.6050 C   0  0  0  0  0  0  0  0  0  0  0  0
   25.5230   10.7550    7.4270 C   0  0  0  0  0  0  0  0  0  0  0  0
   26.9890   10.6960    7.6770 C   0  0  0  0  0  0  0  0  0  0  0  0
   27.8210   11.6900    8.1560 C   0  0  0  0  0  0  0  0  0  0  0  0
   29.0520   11.1040    8.1990 N   0  0  0  0  0  0  0  0  0  0  0  0
   30.5050   11.8990    8.5200 S   0  0  0  0  0  6  0  0  0  0  0  0
   30.7840   12.6850    7.3320 O   0  0  0  0  0  0  0  0  0  0  0  0
   31.3940   10.8340    8.9460 O   0  0  0  0  0  0  0  0  0  0  0  0
   30.2500   12.8890    9.7930 O   0  0  0  0  0  0  0  0  0  0  0  0
   29.3120   13.8610    9.8200 C   0  0  0  0  0  0  0  0  0  0  0  0
   29.6960   15.1750    9.6800 C   0  0  0  0  0  0  0  0  0  0  0  0
   28.3690   16.2470    9.8050 S   0  0  0  0  0  0  0  0  0  0  0  0
   27.2620   14.9560   10.0100 C   0  0  0  0  0  0  0  0  0  0  0  0
   25.8440   15.2350   10.2280 C   0  0  0  0  0  0  0  0  0  0  0  0
   24.8510   14.6650    9.4080 C   0  0  0  0  0  0  0  0  0  0  0  0
   23.4820   14.9160    9.6290 C   0  0  0  0  0  0  0  0  0  0  0  0
   23.0730   15.7410   10.6760 C   0  0  0  0  0  0  0  0  0  0  0  0
   24.0600   16.2940   11.4690 C   0  0  0  0  0  0  0  0  0  0  0  0
   25.4210   16.0580   11.2640 C   0  0  0  0  0  0  0  0  0  0  0  0
   26.2190   16.8070   12.2830 C   0  0  0  0  0  0  0  0  0  0  0  0
   25.1920   17.4840   13.0600 N   0  0  0  0  0  0  0  0  0  0  0  0
   25.4760   18.2520   14.2690 C   0  0  1  0  0  0  0  0  0  0  0  0
   26.6460   17.6470   15.0440 C   0  0  0  0  0  0  0  0  0  0  0  0
   26.8720   18.4220   16.3310 C   0  0  0  0  0  0  0  0  0  0  0  0
   27.0850   19.8920   16.0590 C   0  0  0  0  0  0  0  0  0  0  0  0
   27.7720   20.6020   16.7870 O   0  0  0  0  0  0  0  0  0  0  0  0
   26.4180   20.4200   14.9830 N   0  0  0  0  0  0  0  0  0  0  0  0
   25.7290   19.7440   14.0020 C   0  0  0  0  0  0  0  0  0  0  0  0
   25.3050   20.3510   13.0200 O   0  0  0  0  0  0  0  0  0  0  0  0
   23.9140   17.1800   12.6320 C   0  0  0  0  0  0  0  0  0  0  0  0
   22.8560   17.5310   13.1150 O   0  0  0  0  0  0  0  0  0  0  0  0
   27.9020   13.7300    9.9620 C   0  0  0  0  0  0  0  0  0  0  0  0
   28.9510    9.8190    7.7720 C   0  0  0  0  0  0  0  0  0  0  0  0
   27.7110    9.5430    7.4190 N   0  0  0  0  0  0  0  0  0  0  0  0
   24.7464    9.1845    8.6779 H   0  0  0  0  0  0  0  0  0  0  0  0
   23.8606    9.4192    7.1330 H   0  0  0  0  0  0  0  0  0  0  0  0
   25.4708    8.6230    7.1330 H   0  0  0  0  0  0  0  0  0  0  0  0
   25.3532   11.1010    6.3967 H   0  0  0  0  0  0  0  0  0  0  0  0
   25.0836   11.4474    8.1601 H   0  0  0  0  0  0  0  0  0  0  0  0
   27.5520   12.7186    8.4381 H   0  0  0  0  0  0  0  0  0  0  0  0
   30.7334   15.4977    9.5081 H   0  0  0  0  0  0  0  0  0  0  0  0
   25.1505   14.0096    8.5769 H   0  0  0  0  0  0  0  0  0  0  0  0
   22.7300   14.4573    8.9701 H   0  0  0  0  0  0  0  0  0  0  0  0
   22.0081   15.9433   10.8630 H   0  0  0  0  0  0  0  0  0  0  0  0
   26.8037   16.1198   12.9121 H   0  0  0  0  0  0  0  0  0  0  0  0
   26.9557   17.4941   11.8412 H   0  0  0  0  0  0  0  0  0  0  0  0
   24.5645   18.1912   14.8818 H   0  0  0  0  0  0  0  0  0  0  0  0
   26.4197   16.5979   15.2853 H   0  0  0  0  0  0  0  0  0  0  0  0
   27.5546   17.6997   14.4261 H   0  0  0  0  0  0  0  0  0  0  0  0
   25.9921   18.3020   16.9802 H   0  0  0  0  0  0  0  0  0  0  0  0
   27.7746   18.0261   16.8195 H   0  0  0  0  0  0  0  0  0  0  0  0
   26.4348   21.4464   14.8991 H   0  0  0  0  0  0  0  0  0  0  0  0
   27.3801   12.7638   10.0263 H   0  0  0  0  0  0  0  0  0  0  0  0
   29.7880    9.1067    7.7268 H   0  0  0  0  0  0  0  0  0  0  0  0
  1  2  1  0
  2  3  1  0
  3  4  2  0
  4  5  1  0
  5  6  1  0
  6  7  2  0
  6  8  2  0
  6  9  1  0
  9 10  1  0
 10 11  2  0
 11 12  1  0
 12 13  1  0
 13 14  1  0
 14 15  2  0
 15 16  1  0
 16 17  2  0
 17 18  1  0
 18 19  2  0
 19 20  1  0
 20 21  1  0
 21 22  1  0
 22 23  1  0
 23 24  1  0
 24 25  1  0
 25 26  2  0
 25 27  1  0
 27 28  1  0
 28 29  2  0
 21 30  1  0
 30 31  2  0
 13 32  2  0
  5 33  1  0
 33 34  2  0
 34  3  1  0
 32 10  1  0
 19 14  1  0
 28 22  1  0
 30 18  1  0
  1 35  1  0
  1 36  1  0
  1 37  1  0
  2 38  1  0
  2 39  1  0
  4 40  1  0
 11 41  1  0
 15 42  1  0
 16 43  1  0
 17 44  1  0
 20 45  1  0
 20 46  1  0
 22 47  1  1
 23 48  1  0
 23 49  1  0
 24 50  1  0
 24 51  1  0
 27 52  1  0
 32 53  1  0
 33 54  1  0
M  END
>  <meeko>  (267) 
{"is_sidechain": [true], "free_energy": -13.44, "intermolecular_energy": 0.0, "internal_energy": -13.44, "cluster_size": 14, "cluster_id": 1, "rank_in_cluster": 1}

>  <_RMSD_MCS_to_ref>  (267) 
0.7142760904113565

$$$$
ligand
     RDKit          3D

 62 67  0  0  0  0  0  0  0  0999 V2000
   24.8710    9.6170    7.7820 C   0  0  0  0  0  0  0  0  0  0  0  0
   25.4240   10.9640    7.3490 C   0  0  0  0  0  0  0  0  0  0  0  0
   26.9090   11.0140    7.4270 C   0  0  0  0  0  0  0  0  0  0  0  0
   27.7080   11.7590    8.2720 C   0  0  0  0  0  0  0  0  0  0  0  0
   28.9820   11.4230    7.9130 N   0  0  0  0  0  0  0  0  0  0  0  0
   30.3890   12.2220    8.3950 S   0  0  0  0  0  6  0  0  0  0  0  0
   30.2450   12.4030    9.8280 O   0  0  0  0  0  0  0  0  0  0  0  0
   31.4660   11.4160    7.8510 O   0  0  0  0  0  0  0  0  0  0  0  0
   30.4120   13.6770    7.6390 O   0  0  0  0  0  0  0  0  0  0  0  0
   29.6730   13.8490    6.4920 C   0  0  0  0  0  0  0  0  0  0  0  0
   30.2130   13.4570    5.2740 C   0  0  0  0  0  0  0  0  0  0  0  0
   29.4440   13.6520    4.1470 C   0  0  0  0  0  0  0  0  0  0  0  0
   28.2060   14.1870    4.1700 N   0  0  0  0  0  0  0  0  0  0  0  0
   27.6740   14.5270    5.3560 C   0  0  0  0  0  0  0  0  0  0  0  0
   26.3930   15.0560    5.3890 C   0  0  0  0  0  0  0  0  0  0  0  0
   25.7780   15.4290    6.5890 C   0  0  0  0  0  0  0  0  0  0  0  0
   26.4420   15.2760    7.8090 C   0  0  0  0  0  0  0  0  0  0  0  0
   25.8040   15.6650    9.0760 C   0  0  0  0  0  0  0  0  0  0  0  0
   24.4840   15.2410    9.3790 C   0  0  0  0  0  0  0  0  0  0  0  0
   23.8430   15.6010   10.5710 C   0  0  0  0  0  0  0  0  0  0  0  0
   24.5360   16.3880   11.4700 C   0  0  0  0  0  0  0  0  0  0  0  0
   25.8330   16.8010   11.1790 C   0  0  0  0  0  0  0  0  0  0  0  0
   26.4870   16.4640   10.0070 C   0  0  0  0  0  0  0  0  0  0  0  0
   26.3140   17.6170   12.2980 C   0  0  0  0  0  0  0  0  0  0  0  0
   27.3910   18.1790   12.3420 O   0  0  0  0  0  0  0  0  0  0  0  0
   25.3140   17.6090   13.2590 N   0  0  0  0  0  0  0  0  0  0  0  0
   25.3360   18.5150   14.4010 C   0  0  2  0  0  0  0  0  0  0  0  0
   26.0440   19.8290   14.0900 C   0  0  0  0  0  0  0  0  0  0  0  0
   25.9470   20.7540   15.2950 C   0  0  0  0  0  0  0  0  0  0  0  0
   26.5010   20.0930   16.5350 C   0  0  0  0  0  0  0  0  0  0  0  0
   27.1110   20.7190   17.3960 O   0  0  0  0  0  0  0  0  0  0  0  0
   26.2730   18.7460   16.6670 N   0  0  0  0  0  0  0  0  0  0  0  0
   25.9900   17.8760   15.6390 C   0  0  0  0  0  0  0  0  0  0  0  0
   26.2660   16.6830   15.7430 O   0  0  0  0  0  0  0  0  0  0  0  0
   24.1100   16.9330   12.7920 C   0  0  0  0  0  0  0  0  0  0  0  0
   27.7370   14.7360    7.7850 C   0  0  0  0  0  0  0  0  0  0  0  0
   28.3670   14.3690    6.5720 C   0  0  0  0  0  0  0  0  0  0  0  0
   28.9350   10.5520    6.8710 C   0  0  0  0  0  0  0  0  0  0  0  0
   27.6860   10.2700    6.5610 N   0  0  0  0  0  0  0  0  0  0  0  0
   24.8498    9.5653    8.8806 H   0  0  0  0  0  0  0  0  0  0  0  0
   23.8505    9.4962    7.3895 H   0  0  0  0  0  0  0  0  0  0  0  0
   25.5122    8.8140    7.3895 H   0  0  0  0  0  0  0  0  0  0  0  0
   25.1173   11.1553    6.3101 H   0  0  0  0  0  0  0  0  0  0  0  0
   25.0243   11.7281    8.0319 H   0  0  0  0  0  0  0  0  0  0  0  0
   27.3905   12.4627    9.0556 H   0  0  0  0  0  0  0  0  0  0  0  0
   31.2154   13.0084    5.2112 H   0  0  0  0  0  0  0  0  0  0  0  0
   29.8633   13.3547    3.1744 H   0  0  0  0  0  0  0  0  0  0  0  0
   25.8443   15.1862    4.4445 H   0  0  0  0  0  0  0  0  0  0  0  0
   24.7608   15.8472    6.5719 H   0  0  0  0  0  0  0  0  0  0  0  0
   23.9476   14.6099    8.6551 H   0  0  0  0  0  0  0  0  0  0  0  0
   22.8172   15.2666   10.7851 H   0  0  0  0  0  0  0  0  0  0  0  0
   27.5119   16.8118    9.8105 H   0  0  0  0  0  0  0  0  0  0  0  0
   24.2794   18.7263   14.6221 H   0  0  0  0  0  0  0  0  0  0  0  0
   27.1021   19.6310   13.8637 H   0  0  0  0  0  0  0  0  0  0  0  0
   25.5669   20.3064   13.2214 H   0  0  0  0  0  0  0  0  0  0  0  0
   26.5192   21.6710   15.0908 H   0  0  0  0  0  0  0  0  0  0  0  0
   24.8869   20.9900   15.4693 H   0  0  0  0  0  0  0  0  0  0  0  0
   26.3176   18.3523   17.6177 H   0  0  0  0  0  0  0  0  0  0  0  0
   23.8162   16.1254   13.4786 H   0  0  0  0  0  0  0  0  0  0  0  0
   23.2325   17.5936   12.7312 H   0  0  0  0  0  0  0  0  0  0  0  0
   28.2762   14.5943    8.7332 H   0  0  0  0  0  0  0  0  0  0  0  0
   29.8166   10.1400    6.3581 H   0  0  0  0  0  0  0  0  0  0  0  0
  1  2  1  0
  2  3  1  0
  3  4  2  0
  4  5  1  0
  5  6  1  0
  6  7  2  0
  6  8  2  0
  6  9  1  0
  9 10  1  0
 10 11  2  0
 11 12  1  0
 12 13  2  0
 13 14  1  0
 14 15  2  0
 15 16  1  0
 16 17  2  0
 17 18  1  0
 18 19  2  0
 19 20  1  0
 20 21  2  0
 21 22  1  0
 22 23  2  0
 22 24  1  0
 24 25  2  0
 24 26  1  0
 26 27  1  0
 27 28  1  0
 28 29  1  0
 29 30  1  0
 30 31  2  0
 30 32  1  0
 32 33  1  0
 33 34  2  0
 26 35  1  0
 17 36  1  0
 36 37  2  0
  5 38  1  0
 38 39  2  0
 39  3  1  0
 37 10  1  0
 37 14  1  0
 23 18  1  0
 33 27  1  0
 35 21  1  0
  1 40  1  0
  1 41  1  0
  1 42  1  0
  2 43  1  0
  2 44  1  0
  4 45  1  0
 11 46  1  0
 12 47  1  0
 15 48  1  0
 16 49  1  0
 19 50  1  0
 20 51  1  0
 23 52  1  0
 27 53  1  1
 28 54  1  0
 28 55  1  0
 29 56  1  0
 29 57  1  0
 32 58  1  0
 35 59  1  0
 35 60  1  0
 36 61  1  0
 38 62  1  0
M  END
>  <meeko>  (268) 
{"is_sidechain": [true], "free_energy": -13.44, "intermolecular_energy": 0.0, "internal_energy": -13.44, "cluster_size": 14, "cluster_id": 1, "rank_in_cluster": 1}

>  <_RMSD_MCS_to_ref>  (268) 
1.6843652777497193

$$$$
ligand
     RDKit          3D

 60 65  0  0  0  0  0  0  0  0999 V2000
   24.8710    9.6160    7.7820 C   0  0  0  0  0  0  0  0  0  0  0  0
   25.4240   10.9650    7.3490 C   0  0  0  0  0  0  0  0  0  0  0  0
   26.7940   11.2060    7.8790 C   0  0  0  0  0  0  0  0  0  0  0  0
   27.1880   12.0190    8.9240 C   0  0  0  0  0  0  0  0  0  0  0  0
   28.5460   11.8870    8.9520 N   0  0  0  0  0  0  0  0  0  0  0  0
   29.6000   12.6800   10.0020 S   0  0  0  0  0  6  0  0  0  0  0  0
   30.9240   12.4630    9.4510 O   0  0  0  0  0  0  0  0  0  0  0  0
   29.2300   12.1670   11.3080 O   0  0  0  0  0  0  0  0  0  0  0  0
   29.2650   14.2800    9.9820 O   0  0  0  0  0  0  0  0  0  0  0  0
   28.0350   14.7540    9.6140 C   0  0  0  0  0  0  0  0  0  0  0  0
   26.9460   14.8790   10.4860 C   0  0  0  0  0  0  0  0  0  0  0  0
   25.7100   15.3960   10.0560 C   0  0  0  0  0  0  0  0  0  0  0  0
   24.6000   15.5630   10.9990 C   0  0  0  0  0  0  0  0  0  0  0  0
   23.3070   15.0940   10.6970 C   0  0  0  0  0  0  0  0  0  0  0  0
   22.2300   15.2700   11.5890 C   0  0  0  0  0  0  0  0  0  0  0  0
   22.4170   15.9200   12.8070 C   0  0  0  0  0  0  0  0  0  0  0  0
   23.6890   16.3730   13.0930 C   0  0  0  0  0  0  0  0  0  0  0  0
   24.7650   16.2060   12.2200 C   0  0  0  0  0  0  0  0  0  0  0  0
   25.9840   16.8340   12.8080 C   0  0  0  0  0  0  0  0  0  0  0  0
   25.5350   17.2540   14.1240 N   0  0  0  0  0  0  0  0  0  0  0  0
   26.3880   18.0770   14.9730 C   0  0  2  0  0  0  0  0  0  0  0  0
   26.0670   17.9620   16.4630 C   0  0  0  0  0  0  0  0  0  0  0  0
   27.0600   18.7990   17.2540 C   0  0  0  0  0  0  0  0  0  0  0  0
   27.0480   20.2390   16.7990 C   0  0  0  0  0  0  0  0  0  0  0  0
   27.4140   21.1590   17.5250 O   0  0  0  0  0  0  0  0  0  0  0  0
   26.6800   20.4720   15.4980 N   0  0  0  0  0  0  0  0  0  0  0  0
   26.3620   19.5470   14.5290 C   0  0  0  0  0  0  0  0  0  0  0  0
   26.1760   19.9060   13.3670 O   0  0  0  0  0  0  0  0  0  0  0  0
   24.1700   17.0880   14.2830 C   0  0  0  0  0  0  0  0  0  0  0  0
   23.4650   17.4520   15.2040 O   0  0  0  0  0  0  0  0  0  0  0  0
   25.5470   15.7730    8.7090 C   0  0  0  0  0  0  0  0  0  0  0  0
   26.6160   15.6150    7.8130 C   0  0  0  0  0  0  0  0  0  0  0  0
   26.8400   15.8570    6.4390 C   0  0  0  0  0  0  0  0  0  0  0  0
   28.0750   15.5250    6.0540 N   0  0  0  0  0  0  0  0  0  0  0  0
   28.6380   15.0500    7.1770 N   0  0  0  0  0  0  0  0  0  0  0  0
   27.8200   15.1030    8.2780 C   0  0  0  0  0  0  0  0  0  0  0  0
   28.9280   10.9710    8.0260 C   0  0  0  0  0  0  0  0  0  0  0  0
   27.8890   10.5700    7.3210 N   0  0  0  0  0  0  0  0  0  0  0  0
   24.8497    9.5640    8.8806 H   0  0  0  0  0  0  0  0  0  0  0  0
   23.8507    9.4948    7.3893 H   0  0  0  0  0  0  0  0  0  0  0  0
   25.5127    8.8135    7.3893 H   0  0  0  0  0  0  0  0  0  0  0  0
   25.4582   10.9979    6.2500 H   0  0  0  0  0  0  0  0  0  0  0  0
   24.7631   11.7466    7.7519 H   0  0  0  0  0  0  0  0  0  0  0  0
   26.5536   12.6314    9.5817 H   0  0  0  0  0  0  0  0  0  0  0  0
   27.0600   14.5649   11.5340 H   0  0  0  0  0  0  0  0  0  0  0  0
   23.1332   14.5776    9.7414 H   0  0  0  0  0  0  0  0  0  0  0  0
   21.2328   14.8907   11.3211 H   0  0  0  0  0  0  0  0  0  0  0  0
   21.5851   16.0662   13.5117 H   0  0  0  0  0  0  0  0  0  0  0  0
   26.8055   16.1064   12.8845 H   0  0  0  0  0  0  0  0  0  0  0  0
   26.3799   17.6617   12.2013 H   0  0  0  0  0  0  0  0  0  0  0  0
   27.4054   17.6793   14.8435 H   0  0  0  0  0  0  0  0  0  0  0  0
   25.0466   18.3283   16.6489 H   0  0  0  0  0  0  0  0  0  0  0  0
   26.1379   16.9100   16.7764 H   0  0  0  0  0  0  0  0  0  0  0  0
   26.7940   18.7579   18.3206 H   0  0  0  0  0  0  0  0  0  0  0  0
   28.0680   18.3907   17.0886 H   0  0  0  0  0  0  0  0  0  0  0  0
   26.6362   21.4602   15.2109 H   0  0  0  0  0  0  0  0  0  0  0  0
   24.5894   16.1881    8.3616 H   0  0  0  0  0  0  0  0  0  0  0  0
   26.0805   16.2732    5.7608 H   0  0  0  0  0  0  0  0  0  0  0  0
   29.5983   14.6789    7.2092 H   0  0  0  0  0  0  0  0  0  0  0  0
   29.9587   10.6139    7.8840 H   0  0  0  0  0  0  0  0  0  0  0  0
  1  2  1  0
  2  3  1  0
  3  4  2  0
  4  5  1  0
  5  6  1  0
  6  7  2  0
  6  8  2  0
  6  9  1  0
  9 10  1  0
 10 11  2  0
 11 12  1  0
 12 13  1  0
 13 14  2  0
 14 15  1  0
 15 16  2  0
 16 17  1  0
 17 18  2  0
 18 19  1  0
 19 20  1  0
 20 21  1  0
 21 22  1  0
 22 23  1  0
 23 24  1  0
 24 25  2  0
 24 26  1  0
 26 27  1  0
 27 28  2  0
 20 29  1  0
 29 30  2  0
 12 31  2  0
 31 32  1  0
 32 33  1  0
 33 34  2  0
 34 35  1  0
 35 36  1  0
  5 37  1  0
 37 38  2  0
 38  3  1  0
 36 10  1  0
 18 13  1  0
 27 21  1  0
 36 32  2  0
 29 17  1  0
  1 39  1  0
  1 40  1  0
  1 41  1  0
  2 42  1  0
  2 43  1  0
  4 44  1  0
 11 45  1  0
 14 46  1  0
 15 47  1  0
 16 48  1  0
 19 49  1  0
 19 50  1  0
 21 51  1  1
 22 52  1  0
 22 53  1  0
 23 54  1  0
 23 55  1  0
 26 56  1  0
 31 57  1  0
 33 58  1  0
 35 59  1  0
 37 60  1  0
M  END
>  <meeko>  (269) 
{"is_sidechain": [true], "free_energy": -13.43, "intermolecular_energy": 0.0, "internal_energy": -13.43, "cluster_size": 14, "cluster_id": 1, "rank_in_cluster": 1}

>  <_RMSD_MCS_to_ref>  (269) 
1.6654085084447

$$$$
ligand
     RDKit          3D

 61 66  0  0  0  0  0  0  0  0999 V2000
   24.8540    9.4020    7.6050 C   0  0  0  0  0  0  0  0  0  0  0  0
   25.5230   10.7550    7.4270 C   0  0  0  0  0  0  0  0  0  0  0  0
   27.0040   10.6690    7.5490 C   0  0  0  0  0  0  0  0  0  0  0  0
   27.9390   11.6850    7.5150 C   0  0  0  0  0  0  0  0  0  0  0  0
   29.1320   11.0490    7.7100 N   0  0  0  0  0  0  0  0  0  0  0  0
   30.6580   11.7430    7.5350 S   0  0  0  0  0  6  0  0  0  0  0  0
   31.5600   10.8170    8.1910 O   0  0  0  0  0  0  0  0  0  0  0  0
   30.7690   12.0380    6.1150 O   0  0  0  0  0  0  0  0  0  0  0  0
   30.6090   13.1490    8.3610 O   0  0  0  0  0  0  0  0  0  0  0  0
   29.3880   13.6910    8.7130 C   0  0  0  0  0  0  0  0  0  0  0  0
   28.7870   13.1750    9.8630 C   0  0  0  0  0  0  0  0  0  0  0  0
   27.5460   13.6400   10.2890 C   0  0  0  0  0  0  0  0  0  0  0  0
   26.8540   14.6270    9.5650 C   0  0  0  0  0  0  0  0  0  0  0  0
   25.5630   15.1400   10.0190 C   0  0  0  0  0  0  0  0  0  0  0  0
   24.3590   14.6990    9.4370 C   0  0  0  0  0  0  0  0  0  0  0  0
   23.1080   15.1750    9.8780 C   0  0  0  0  0  0  0  0  0  0  0  0
   23.0290   16.1040   10.9140 C   0  0  0  0  0  0  0  0  0  0  0  0
   24.2180   16.5290   11.4740 C   0  0  0  0  0  0  0  0  0  0  0  0
   25.4650   16.0690   11.0490 C   0  0  0  0  0  0  0  0  0  0  0  0
   26.5420   16.6970   11.8700 C   0  0  0  0  0  0  0  0  0  0  0  0
   25.8000   17.6160   12.7260 N   0  0  0  0  0  0  0  0  0  0  0  0
   26.3850   18.2840   13.8810 C   0  0  2  0  0  0  0  0  0  0  0  0
   25.9580   17.6460   15.2000 C   0  0  0  0  0  0  0  0  0  0  0  0
   26.6770   18.3340   16.3500 C   0  0  0  0  0  0  0  0  0  0  0  0
   26.4270   19.8250   16.3380 C   0  0  0  0  0  0  0  0  0  0  0  0
   26.3350   20.4840   17.3690 O   0  0  0  0  0  0  0  0  0  0  0  0
   26.3290   20.4210   15.1060 N   0  0  0  0  0  0  0  0  0  0  0  0
   26.0460   19.7840   13.9180 C   0  0  0  0  0  0  0  0  0  0  0  0
   25.5540   20.4120   12.9830 O   0  0  0  0  0  0  0  0  0  0  0  0
   24.4290   17.4800   12.5700 C   0  0  0  0  0  0  0  0  0  0  0  0
   23.5470   18.0280   13.2020 O   0  0  0  0  0  0  0  0  0  0  0  0
   27.4320   15.1310    8.3710 C   0  0  0  0  0  0  0  0  0  0  0  0
   27.0170   16.0850    7.3930 C   0  0  0  0  0  0  0  0  0  0  0  0
   27.9980   16.1640    6.4350 C   0  0  0  0  0  0  0  0  0  0  0  0
   28.9920   15.2910    6.7820 N   0  0  0  0  0  0  0  0  0  0  0  0
   28.6860   14.6530    7.9670 C   0  0  0  0  0  0  0  0  0  0  0  0
   28.9170    9.7110    7.7690 C   0  0  0  0  0  0  0  0  0  0  0  0
   27.6290    9.4480    7.7000 N   0  0  0  0  0  0  0  0  0  0  0  0
   24.7464    9.1845    8.6779 H   0  0  0  0  0  0  0  0  0  0  0  0
   23.8606    9.4192    7.1330 H   0  0  0  0  0  0  0  0  0  0  0  0
   25.4708    8.6230    7.1330 H   0  0  0  0  0  0  0  0  0  0  0  0
   25.2716   11.1464    6.4302 H   0  0  0  0  0  0  0  0  0  0  0  0
   25.1562   11.4209    8.2220 H   0  0  0  0  0  0  0  0  0  0  0  0
   27.7631   12.7605    7.3651 H   0  0  0  0  0  0  0  0  0  0  0  0
   29.3006   12.3914   10.4394 H   0  0  0  0  0  0  0  0  0  0  0  0
   27.0997   13.2288   11.2065 H   0  0  0  0  0  0  0  0  0  0  0  0
   24.3958   13.9652    8.6183 H   0  0  0  0  0  0  0  0  0  0  0  0
   22.1864   14.8104    9.4007 H   0  0  0  0  0  0  0  0  0  0  0  0
   22.0600   16.4830   11.2709 H   0  0  0  0  0  0  0  0  0  0  0  0
   27.0761   15.9430   12.4669 H   0  0  0  0  0  0  0  0  0  0  0  0
   27.3170   17.1926   11.2669 H   0  0  0  0  0  0  0  0  0  0  0  0
   27.4725   18.1651   13.7658 H   0  0  0  0  0  0  0  0  0  0  0  0
   24.8711   17.7582   15.3271 H   0  0  0  0  0  0  0  0  0  0  0  0
   26.2169   16.5769   15.1918 H   0  0  0  0  0  0  0  0  0  0  0  0
   26.3138   17.9170   17.3009 H   0  0  0  0  0  0  0  0  0  0  0  0
   27.7576   18.1613   16.2380 H   0  0  0  0  0  0  0  0  0  0  0  0
   26.4811   21.4389   15.0658 H   0  0  0  0  0  0  0  0  0  0  0  0
   26.0770   16.6562    7.4048 H   0  0  0  0  0  0  0  0  0  0  0  0
   27.9863   16.8134    5.5472 H   0  0  0  0  0  0  0  0  0  0  0  0
   29.8500   15.1318    6.2348 H   0  0  0  0  0  0  0  0  0  0  0  0
   29.7080    8.9522    7.8615 H   0  0  0  0  0  0  0  0  0  0  0  0
  1  2  1  0
  2  3  1  0
  3  4  2  0
  4  5  1  0
  5  6  1  0
  6  7  2  0
  6  8  2  0
  6  9  1  0
  9 10  1  0
 10 11  2  0
 11 12  1  0
 12 13  2  0
 13 14  1  0
 14 15  2  0
 15 16  1  0
 16 17  2  0
 17 18  1  0
 18 19  2  0
 19 20  1  0
 20 21  1  0
 21 22  1  0
 22 23  1  0
 23 24  1  0
 24 25  1  0
 25 26  2  0
 25 27  1  0
 27 28  1  0
 28 29  2  0
 21 30  1  0
 30 31  2  0
 13 32  1  0
 32 33  1  0
 33 34  2  0
 34 35  1  0
 35 36  1  0
  5 37  1  0
 37 38  2  0
 38  3  1  0
 36 10  1  0
 19 14  1  0
 28 22  1  0
 36 32  2  0
 30 18  1  0
  1 39  1  0
  1 40  1  0
  1 41  1  0
  2 42  1  0
  2 43  1  0
  4 44  1  0
 11 45  1  0
 12 46  1  0
 15 47  1  0
 16 48  1  0
 17 49  1  0
 20 50  1  0
 20 51  1  0
 22 52  1  6
 23 53  1  0
 23 54  1  0
 24 55  1  0
 24 56  1  0
 27 57  1  0
 33 58  1  0
 34 59  1  0
 35 60  1  0
 37 61  1  0
M  END
>  <meeko>  (270) 
{"is_sidechain": [true], "free_energy": -13.42, "intermolecular_energy": 0.0, "internal_energy": -13.42, "cluster_size": 10, "cluster_id": 1, "rank_in_cluster": 1}

>  <_RMSD_MCS_to_ref>  (270) 
1.0081194263467876

$$$$
ligand
     RDKit          3D

 58 62  0  0  0  0  0  0  0  0999 V2000
   24.8540    9.4020    7.6050 C   0  0  0  0  0  0  0  0  0  0  0  0
   25.5230   10.7550    7.4270 C   0  0  0  0  0  0  0  0  0  0  0  0
   24.9230   11.5360    6.3120 C   0  0  0  0  0  0  0  0  0  0  0  0
   25.5040   11.9480    5.1280 C   0  0  0  0  0  0  0  0  0  0  0  0
   24.5050   12.6120    4.4770 N   0  0  0  0  0  0  0  0  0  0  0  0
   24.6810   13.5510    3.0950 S   0  0  0  0  0  6  0  0  0  0  0  0
   23.3410   13.9780    2.7420 O   0  0  0  0  0  0  0  0  0  0  0  0
   25.5230   12.7940    2.1910 O   0  0  0  0  0  0  0  0  0  0  0  0
   25.5930   14.9620    3.6450 C   0  0  0  0  0  0  0  0  0  0  0  0
   26.5330   15.5530    2.8020 C   0  0  0  0  0  0  0  0  0  0  0  0
   27.2280   16.6480    3.2820 C   0  0  0  0  0  0  0  0  0  0  0  0
   27.0460   17.1710    4.5150 N   0  0  0  0  0  0  0  0  0  0  0  0
   26.1270   16.5560    5.3150 C   0  0  0  0  0  0  0  0  0  0  0  0
   25.9400   17.1500    6.6800 C   0  0  0  0  0  0  0  0  0  0  0  0
   26.2520   18.3170    6.8810 O   0  0  0  0  0  0  0  0  0  0  0  0
   25.4170   16.2540    7.5910 N   0  0  0  0  0  0  0  0  0  0  0  0
   25.1110   16.4700    8.9460 C   0  0  0  0  0  0  0  0  0  0  0  0
   23.9030   15.9040    9.4230 C   0  0  0  0  0  0  0  0  0  0  0  0
   23.4990   16.0570   10.7550 C   0  0  0  0  0  0  0  0  0  0  0  0
   24.3300   16.7820   11.5820 C   0  0  0  0  0  0  0  0  0  0  0  0
   25.5070   17.3400   11.1250 C   0  0  0  0  0  0  0  0  0  0  0  0
   25.9270   17.2050    9.8130 C   0  0  0  0  0  0  0  0  0  0  0  0
   26.1230   18.0460   12.2480 C   0  0  0  0  0  0  0  0  0  0  0  0
   27.1470   18.6980   12.1730 O   0  0  0  0  0  0  0  0  0  0  0  0
   25.3150   17.8380   13.3340 N   0  0  0  0  0  0  0  0  0  0  0  0
   25.4760   18.4810   14.6280 C   0  0  1  0  0  0  0  0  0  0  0  0
   26.6030   17.9050   15.4820 C   0  0  0  0  0  0  0  0  0  0  0  0
   26.6420   18.6340   16.8160 C   0  0  0  0  0  0  0  0  0  0  0  0
   26.7980   20.1240   16.6240 C   0  0  0  0  0  0  0  0  0  0  0  0
   27.3250   20.8420   17.4690 O   0  0  0  0  0  0  0  0  0  0  0  0
   26.2650   20.6560   15.4770 N   0  0  0  0  0  0  0  0  0  0  0  0
   25.6850   19.9850   14.4230 C   0  0  0  0  0  0  0  0  0  0  0  0
   25.3120   20.5980   13.4240 O   0  0  0  0  0  0  0  0  0  0  0  0
   24.1970   17.1250   12.9960 C   0  0  0  0  0  0  0  0  0  0  0  0
   23.2540   16.8040   13.6930 O   0  0  0  0  0  0  0  0  0  0  0  0
   25.3840   15.4510    4.9310 C   0  0  0  0  0  0  0  0  0  0  0  0
   23.3940   12.6240    5.2590 C   0  0  0  0  0  0  0  0  0  0  0  0
   23.6130   11.9720    6.3820 N   0  0  0  0  0  0  0  0  0  0  0  0
   24.7464    9.1845    8.6779 H   0  0  0  0  0  0  0  0  0  0  0  0
   23.8606    9.4192    7.1330 H   0  0  0  0  0  0  0  0  0  0  0  0
   25.4708    8.6230    7.1330 H   0  0  0  0  0  0  0  0  0  0  0  0
   25.4156   11.3287    8.3594 H   0  0  0  0  0  0  0  0  0  0  0  0
   26.5815   10.5792    7.1849 H   0  0  0  0  0  0  0  0  0  0  0  0
   26.5363   11.7793    4.7877 H   0  0  0  0  0  0  0  0  0  0  0  0
   26.7155   15.1619    1.7902 H   0  0  0  0  0  0  0  0  0  0  0  0
   27.9713   17.1203    2.6228 H   0  0  0  0  0  0  0  0  0  0  0  0
   25.2269   15.3073    7.2324 H   0  0  0  0  0  0  0  0  0  0  0  0
   23.2679   15.3312    8.7312 H   0  0  0  0  0  0  0  0  0  0  0  0
   22.5605   15.6183   11.1248 H   0  0  0  0  0  0  0  0  0  0  0  0
   26.8669   17.6585    9.4651 H   0  0  0  0  0  0  0  0  0  0  0  0
   24.5512   18.2848   15.1904 H   0  0  0  0  0  0  0  0  0  0  0  0
   26.4238   16.8333   15.6535 H   0  0  0  0  0  0  0  0  0  0  0  0
   27.5637   18.0341   14.9620 H   0  0  0  0  0  0  0  0  0  0  0  0
   25.7050   18.4389   17.3582 H   0  0  0  0  0  0  0  0  0  0  0  0
   27.5068   18.2656   17.3873 H   0  0  0  0  0  0  0  0  0  0  0  0
   26.3032   21.6819   15.3940 H   0  0  0  0  0  0  0  0  0  0  0  0
   24.6604   14.9808    5.6132 H   0  0  0  0  0  0  0  0  0  0  0  0
   22.4443   13.1104    4.9915 H   0  0  0  0  0  0  0  0  0  0  0  0
  1  2  1  0
  2  3  1  0
  3  4  2  0
  4  5  1  0
  5  6  1  0
  6  7  2  0
  6  8  2  0
  6  9  1  0
  9 10  2  0
 10 11  1  0
 11 12  2  0
 12 13  1  0
 13 14  1  0
 14 15  2  0
 14 16  1  0
 16 17  1  0
 17 18  2  0
 18 19  1  0
 19 20  2  0
 20 21  1  0
 21 22  2  0
 21 23  1  0
 23 24  2  0
 23 25  1  0
 25 26  1  0
 26 27  1  0
 27 28  1  0
 28 29  1  0
 29 30  2  0
 29 31  1  0
 31 32  1  0
 32 33  2  0
 25 34  1  0
 34 35  2  0
 13 36  2  0
  5 37  1  0
 37 38  2  0
 38  3  1  0
 36  9  1  0
 22 17  1  0
 32 26  1  0
 34 20  1  0
  1 39  1  0
  1 40  1  0
  1 41  1  0
  2 42  1  0
  2 43  1  0
  4 44  1  0
 10 45  1  0
 11 46  1  0
 16 47  1  0
 18 48  1  0
 19 49  1  0
 22 50  1  0
 26 51  1  1
 27 52  1  0
 27 53  1  0
 28 54  1  0
 28 55  1  0
 31 56  1  0
 36 57  1  0
 37 58  1  0
M  END
>  <meeko>  (271) 
{"is_sidechain": [true], "free_energy": -13.42, "intermolecular_energy": 0.0, "internal_energy": -13.42, "cluster_size": 20, "cluster_id": 1, "rank_in_cluster": 1}

>  <_RMSD_MCS_to_ref>  (271) 
0.5692521409709402

$$$$
ligand
     RDKit          3D

 54 58  0  0  0  0  0  0  0  0999 V2000
   24.8540    9.4020    7.6050 C   0  0  0  0  0  0  0  0  0  0  0  0
   25.5230   10.7550    7.4270 C   0  0  0  0  0  0  0  0  0  0  0  0
   26.9780   10.7080    7.7400 C   0  0  0  0  0  0  0  0  0  0  0  0
   27.8240   11.7400    8.0950 C   0  0  0  0  0  0  0  0  0  0  0  0
   29.0290   11.1290    8.2990 N   0  0  0  0  0  0  0  0  0  0  0  0
   30.5050   11.9110    8.5240 S   0  0  0  0  0  6  0  0  0  0  0  0
   31.4310   10.8560    8.8910 O   0  0  0  0  0  0  0  0  0  0  0  0
   30.6920   12.7000    7.3200 O   0  0  0  0  0  0  0  0  0  0  0  0
   30.2950   12.9080    9.7950 O   0  0  0  0  0  0  0  0  0  0  0  0
   29.3700   13.8690    9.8070 C   0  0  0  0  0  0  0  0  0  0  0  0
   29.4470   15.2160    9.5030 C   0  0  0  0  0  0  0  0  0  0  0  0
   28.1970   15.8870    9.6490 C   0  0  0  0  0  0  0  0  0  0  0  0
   27.1970   15.0390   10.0710 C   0  0  0  0  0  0  0  0  0  0  0  0
   25.7930   15.3420   10.3220 C   0  0  0  0  0  0  0  0  0  0  0  0
   24.8070   14.9470    9.4000 C   0  0  0  0  0  0  0  0  0  0  0  0
   23.4470   15.2490    9.6050 C   0  0  0  0  0  0  0  0  0  0  0  0
   23.0440   15.9600   10.7340 C   0  0  0  0  0  0  0  0  0  0  0  0
   24.0270   16.3420   11.6280 C   0  0  0  0  0  0  0  0  0  0  0  0
   25.3800   16.0480   11.4430 C   0  0  0  0  0  0  0  0  0  0  0  0
   26.1780   16.6300   12.5640 C   0  0  0  0  0  0  0  0  0  0  0  0
   25.1520   17.1930   13.4330 N   0  0  0  0  0  0  0  0  0  0  0  0
   25.4440   18.0960   14.5390 C   0  0  1  0  0  0  0  0  0  0  0  0
   26.4900   17.5290   15.4940 C   0  0  0  0  0  0  0  0  0  0  0  0
   26.6760   18.4840   16.6640 C   0  0  0  0  0  0  0  0  0  0  0  0
   27.0400   19.8690   16.1850 C   0  0  0  0  0  0  0  0  0  0  0  0
   27.8160   20.5940   16.8010 O   0  0  0  0  0  0  0  0  0  0  0  0
   26.4440   20.2940   15.0240 N   0  0  0  0  0  0  0  0  0  0  0  0
   25.9080   19.4790   14.0520 C   0  0  0  0  0  0  0  0  0  0  0  0
   25.8340   19.8690   12.8890 O   0  0  0  0  0  0  0  0  0  0  0  0
   23.8880   17.1070   12.8700 C   0  0  0  0  0  0  0  0  0  0  0  0
   22.8460   17.5670   13.2950 O   0  0  0  0  0  0  0  0  0  0  0  0
   27.7730   13.4430   10.2700 S   0  0  0  0  0  0  0  0  0  0  0  0
   28.9170    9.8110    7.9940 C   0  0  0  0  0  0  0  0  0  0  0  0
   27.6730    9.5170    7.6740 N   0  0  0  0  0  0  0  0  0  0  0  0
   24.7464    9.1845    8.6779 H   0  0  0  0  0  0  0  0  0  0  0  0
   23.8606    9.4192    7.1330 H   0  0  0  0  0  0  0  0  0  0  0  0
   25.4708    8.6230    7.1330 H   0  0  0  0  0  0  0  0  0  0  0  0
   25.3953   11.0789    6.3836 H   0  0  0  0  0  0  0  0  0  0  0  0
   25.0497   11.4605    8.1257 H   0  0  0  0  0  0  0  0  0  0  0  0
   27.5831   12.8089    8.1915 H   0  0  0  0  0  0  0  0  0  0  0  0
   30.3730   15.7161    9.1830 H   0  0  0  0  0  0  0  0  0  0  0  0
   28.0486   16.9582    9.4478 H   0  0  0  0  0  0  0  0  0  0  0  0
   25.1047   14.3901    8.4993 H   0  0  0  0  0  0  0  0  0  0  0  0
   22.6977   14.9216    8.8692 H   0  0  0  0  0  0  0  0  0  0  0  0
   21.9862   16.2073   10.9068 H   0  0  0  0  0  0  0  0  0  0  0  0
   26.7552   15.8520   13.0850 H   0  0  0  0  0  0  0  0  0  0  0  0
   26.9207   17.3700   12.2313 H   0  0  0  0  0  0  0  0  0  0  0  0
   24.4938   18.2071   15.0819 H   0  0  0  0  0  0  0  0  0  0  0  0
   26.1534   16.5510   15.8684 H   0  0  0  0  0  0  0  0  0  0  0  0
   27.4456   17.4080   14.9628 H   0  0  0  0  0  0  0  0  0  0  0  0
   25.7382   18.5371   17.2365 H   0  0  0  0  0  0  0  0  0  0  0  0
   27.4944   18.1071   17.2950 H   0  0  0  0  0  0  0  0  0  0  0  0
   26.3932   21.3106   14.8661 H   0  0  0  0  0  0  0  0  0  0  0  0
   29.7476    9.0900    8.0115 H   0  0  0  0  0  0  0  0  0  0  0  0
  1  2  1  0
  2  3  1  0
  3  4  2  0
  4  5  1  0
  5  6  1  0
  6  7  2  0
  6  8  2  0
  6  9  1  0
  9 10  1  0
 10 11  2  0
 11 12  1  0
 12 13  2  0
 13 14  1  0
 14 15  2  0
 15 16  1  0
 16 17  2  0
 17 18  1  0
 18 19  2  0
 19 20  1  0
 20 21  1  0
 21 22  1  0
 22 23  1  0
 23 24  1  0
 24 25  1  0
 25 26  2  0
 25 27  1  0
 27 28  1  0
 28 29  2  0
 21 30  1  0
 30 31  2  0
 13 32  1  0
  5 33  1  0
 33 34  2  0
 34  3  1  0
 32 10  1  0
 19 14  1  0
 28 22  1  0
 30 18  1  0
  1 35  1  0
  1 36  1  0
  1 37  1  0
  2 38  1  0
  2 39  1  0
  4 40  1  0
 11 41  1  0
 12 42  1  0
 15 43  1  0
 16 44  1  0
 17 45  1  0
 20 46  1  0
 20 47  1  0
 22 48  1  1
 23 49  1  0
 23 50  1  0
 24 51  1  0
 24 52  1  0
 27 53  1  0
 33 54  1  0
M  END
>  <meeko>  (272) 
{"is_sidechain": [true], "free_energy": -13.41, "intermolecular_energy": 0.0, "internal_energy": -13.41, "cluster_size": 13, "cluster_id": 1, "rank_in_cluster": 1}

>  <_RMSD_MCS_to_ref>  (272) 
0.796786392677206

$$$$
ligand
     RDKit          3D

 60 65  0  0  0  0  0  0  0  0999 V2000
   24.8540    9.4020    7.6050 C   0  0  0  0  0  0  0  0  0  0  0  0
   25.5230   10.7550    7.4270 C   0  0  0  0  0  0  0  0  0  0  0  0
   27.0000   10.6800    7.5990 C   0  0  0  0  0  0  0  0  0  0  0  0
   27.9070   11.7070    7.7710 C   0  0  0  0  0  0  0  0  0  0  0  0
   29.1140   11.0730    7.8570 N   0  0  0  0  0  0  0  0  0  0  0  0
   30.6020   11.8290    8.1020 S   0  0  0  0  0  6  0  0  0  0  0  0
   31.2130   11.1650    9.2400 O   0  0  0  0  0  0  0  0  0  0  0  0
   31.2360   11.7610    6.7940 O   0  0  0  0  0  0  0  0  0  0  0  0
   30.3610   13.4010    8.4360 O   0  0  0  0  0  0  0  0  0  0  0  0
   29.8530   14.2730    7.5550 C   0  0  0  0  0  0  0  0  0  0  0  0
   30.5780   14.6840    6.5180 N   0  0  0  0  0  0  0  0  0  0  0  0
   29.7580   15.5520    5.8940 N   0  0  0  0  0  0  0  0  0  0  0  0
   28.5440   15.7130    6.5140 C   0  0  0  0  0  0  0  0  0  0  0  0
   27.4400   16.5080    6.1990 C   0  0  0  0  0  0  0  0  0  0  0  0
   26.3400   16.4350    7.0640 C   0  0  0  0  0  0  0  0  0  0  0  0
   26.3340   15.6040    8.1980 C   0  0  0  0  0  0  0  0  0  0  0  0
   25.1620   15.5500    9.0740 C   0  0  0  0  0  0  0  0  0  0  0  0
   24.0020   14.8450    8.6920 C   0  0  0  0  0  0  0  0  0  0  0  0
   22.8700   14.7730    9.5280 C   0  0  0  0  0  0  0  0  0  0  0  0
   22.8650   15.4080   10.7680 C   0  0  0  0  0  0  0  0  0  0  0  0
   24.0040   16.1020   11.1270 C   0  0  0  0  0  0  0  0  0  0  0  0
   25.1340   16.1820   10.3120 C   0  0  0  0  0  0  0  0  0  0  0  0
   26.1860   17.0000   10.9910 C   0  0  0  0  0  0  0  0  0  0  0  0
   25.5190   17.4340   12.2130 N   0  0  0  0  0  0  0  0  0  0  0  0
   26.2190   18.0520   13.3320 C   0  0  2  0  0  0  0  0  0  0  0  0
   25.8550   17.4150   14.6700 C   0  0  0  0  0  0  0  0  0  0  0  0
   26.6870   18.0490   15.7750 C   0  0  0  0  0  0  0  0  0  0  0  0
   26.5130   19.5500   15.7950 C   0  0  0  0  0  0  0  0  0  0  0  0
   26.4960   20.1960   16.8380 O   0  0  0  0  0  0  0  0  0  0  0  0
   26.3900   20.1690   14.5770 N   0  0  0  0  0  0  0  0  0  0  0  0
   25.9630   19.5660   13.4150 C   0  0  0  0  0  0  0  0  0  0  0  0
   25.4110   20.2300   12.5400 O   0  0  0  0  0  0  0  0  0  0  0  0
   24.2680   16.8550   12.3570 C   0  0  0  0  0  0  0  0  0  0  0  0
   23.5110   16.9360   13.3050 O   0  0  0  0  0  0  0  0  0  0  0  0
   27.4690   14.8210    8.4820 C   0  0  0  0  0  0  0  0  0  0  0  0
   28.5820   14.8780    7.6240 C   0  0  0  0  0  0  0  0  0  0  0  0
   28.9240    9.7340    7.7630 C   0  0  0  0  0  0  0  0  0  0  0  0
   27.6450    9.4590    7.5970 N   0  0  0  0  0  0  0  0  0  0  0  0
   24.7464    9.1845    8.6779 H   0  0  0  0  0  0  0  0  0  0  0  0
   23.8606    9.4192    7.1330 H   0  0  0  0  0  0  0  0  0  0  0  0
   25.4708    8.6230    7.1330 H   0  0  0  0  0  0  0  0  0  0  0  0
   25.3028   11.1287    6.4161 H   0  0  0  0  0  0  0  0  0  0  0  0
   25.1274   11.4311    8.1992 H   0  0  0  0  0  0  0  0  0  0  0  0
   27.7043   12.7868    7.8261 H   0  0  0  0  0  0  0  0  0  0  0  0
   30.0183   16.0494    5.0305 H   0  0  0  0  0  0  0  0  0  0  0  0
   27.4341   17.1607    5.3136 H   0  0  0  0  0  0  0  0  0  0  0  0
   25.4523   17.0479    6.8488 H   0  0  0  0  0  0  0  0  0  0  0  0
   23.9803   14.3381    7.7160 H   0  0  0  0  0  0  0  0  0  0  0  0
   21.9834   14.2111    9.1990 H   0  0  0  0  0  0  0  0  0  0  0  0
   21.9905   15.3587   11.4334 H   0  0  0  0  0  0  0  0  0  0  0  0
   27.0745   16.3928   11.2188 H   0  0  0  0  0  0  0  0  0  0  0  0
   26.5536   17.8344   10.3756 H   0  0  0  0  0  0  0  0  0  0  0  0
   27.2874   17.8793   13.1353 H   0  0  0  0  0  0  0  0  0  0  0  0
   24.7867   17.5781   14.8755 H   0  0  0  0  0  0  0  0  0  0  0  0
   26.0593   16.3349   14.6302 H   0  0  0  0  0  0  0  0  0  0  0  0
   26.3695   17.6377   16.7446 H   0  0  0  0  0  0  0  0  0  0  0  0
   27.7470   17.8230   15.5872 H   0  0  0  0  0  0  0  0  0  0  0  0
   26.6376   21.1676   14.5275 H   0  0  0  0  0  0  0  0  0  0  0  0
   27.4852   14.1696    9.3682 H   0  0  0  0  0  0  0  0  0  0  0  0
   29.7249    8.9819    7.8176 H   0  0  0  0  0  0  0  0  0  0  0  0
  1  2  1  0
  2  3  1  0
  3  4  2  0
  4  5  1  0
  5  6  1  0
  6  7  2  0
  6  8  2  0
  6  9  1  0
  9 10  1  0
 10 11  2  0
 11 12  1  0
 12 13  1  0
 13 14  2  0
 14 15  1  0
 15 16  2  0
 16 17  1  0
 17 18  2  0
 18 19  1  0
 19 20  2  0
 20 21  1  0
 21 22  2  0
 22 23  1  0
 23 24  1  0
 24 25  1  0
 25 26  1  0
 26 27  1  0
 27 28  1  0
 28 29  2  0
 28 30  1  0
 30 31  1  0
 31 32  2  0
 24 33  1  0
 33 34  2  0
 16 35  1  0
 35 36  2  0
  5 37  1  0
 37 38  2  0
 38  3  1  0
 36 10  1  0
 36 13  1  0
 22 17  1  0
 31 25  1  0
 33 21  1  0
  1 39  1  0
  1 40  1  0
  1 41  1  0
  2 42  1  0
  2 43  1  0
  4 44  1  0
 12 45  1  0
 14 46  1  0
 15 47  1  0
 18 48  1  0
 19 49  1  0
 20 50  1  0
 23 51  1  0
 23 52  1  0
 25 53  1  6
 26 54  1  0
 26 55  1  0
 27 56  1  0
 27 57  1  0
 30 58  1  0
 35 59  1  0
 37 60  1  0
M  END
>  <meeko>  (273) 
{"is_sidechain": [true], "free_energy": -13.41, "intermolecular_energy": 0.0, "internal_energy": -13.41, "cluster_size": 3, "cluster_id": 2, "rank_in_cluster": 1}

>  <_RMSD_MCS_to_ref>  (273) 
1.2847610240386689

$$$$
ligand
     RDKit          3D

 54 58  0  0  0  0  0  0  0  0999 V2000
   24.8710    9.6160    7.7820 C   0  0  0  0  0  0  0  0  0  0  0  0
   25.4240   10.9650    7.3490 C   0  0  0  0  0  0  0  0  0  0  0  0
   26.8540   11.1330    7.7220 C   0  0  0  0  0  0  0  0  0  0  0  0
   27.4520   12.1540    8.4350 C   0  0  0  0  0  0  0  0  0  0  0  0
   28.7700   11.8010    8.4860 N   0  0  0  0  0  0  0  0  0  0  0  0
   29.9620   12.5950    9.3800 S   0  0  0  0  0  6  0  0  0  0  0  0
   29.7700   12.1610   10.7510 O   0  0  0  0  0  0  0  0  0  0  0  0
   31.1840   12.3010    8.6570 O   0  0  0  0  0  0  0  0  0  0  0  0
   29.6770   14.1990    9.2680 O   0  0  0  0  0  0  0  0  0  0  0  0
   28.4540   14.7240    9.1500 C   0  0  0  0  0  0  0  0  0  0  0  0
   27.4810   14.9940   10.0930 C   0  0  0  0  0  0  0  0  0  0  0  0
   26.2510   15.4540    9.5190 C   0  0  0  0  0  0  0  0  0  0  0  0
   25.0020   15.6990   10.2210 C   0  0  0  0  0  0  0  0  0  0  0  0
   23.7630   15.3650    9.6510 C   0  0  0  0  0  0  0  0  0  0  0  0
   22.5570   15.6350   10.3270 C   0  0  0  0  0  0  0  0  0  0  0  0
   22.5640   16.2450   11.5830 C   0  0  0  0  0  0  0  0  0  0  0  0
   23.7940   16.5560   12.1300 C   0  0  0  0  0  0  0  0  0  0  0  0
   24.9970   16.2910   11.4770 C   0  0  0  0  0  0  0  0  0  0  0  0
   26.1330   16.7540   12.3230 C   0  0  0  0  0  0  0  0  0  0  0  0
   25.4820   17.2230   13.5330 N   0  0  0  0  0  0  0  0  0  0  0  0
   26.2340   18.0130   14.5040 C   0  0  2  0  0  0  0  0  0  0  0  0
   25.8080   17.7900   15.9540 C   0  0  0  0  0  0  0  0  0  0  0  0
   26.7350   18.5740   16.8700 C   0  0  0  0  0  0  0  0  0  0  0  0
   26.7420   20.0440   16.5180 C   0  0  0  0  0  0  0  0  0  0  0  0
   27.0280   20.9120   17.3380 O   0  0  0  0  0  0  0  0  0  0  0  0
   26.4780   20.3660   15.2100 N   0  0  0  0  0  0  0  0  0  0  0  0
   26.1980   19.5130   14.1670 C   0  0  0  0  0  0  0  0  0  0  0  0
   26.0210   19.9580   13.0320 O   0  0  0  0  0  0  0  0  0  0  0  0
   24.1010   17.2100   13.4090 C   0  0  0  0  0  0  0  0  0  0  0  0
   23.2660   17.6560   14.1710 O   0  0  0  0  0  0  0  0  0  0  0  0
   26.3650   15.6090    8.1550 C   0  0  0  0  0  0  0  0  0  0  0  0
   27.9170   15.1740    7.5840 S   0  0  0  0  0  0  0  0  0  0  0  0
   28.9470   10.6340    7.8150 C   0  0  0  0  0  0  0  0  0  0  0  0
   27.7920   10.1850    7.3590 N   0  0  0  0  0  0  0  0  0  0  0  0
   24.8497    9.5640    8.8806 H   0  0  0  0  0  0  0  0  0  0  0  0
   23.8507    9.4948    7.3893 H   0  0  0  0  0  0  0  0  0  0  0  0
   25.5127    8.8135    7.3893 H   0  0  0  0  0  0  0  0  0  0  0  0
   25.3305   11.0518    6.2564 H   0  0  0  0  0  0  0  0  0  0  0  0
   24.8470   11.7471    7.8641 H   0  0  0  0  0  0  0  0  0  0  0  0
   26.9751   13.0476    8.8639 H   0  0  0  0  0  0  0  0  0  0  0  0
   27.6348   14.8686   11.1749 H   0  0  0  0  0  0  0  0  0  0  0  0
   23.7337   14.8852    8.6616 H   0  0  0  0  0  0  0  0  0  0  0  0
   21.5990   15.3622    9.8602 H   0  0  0  0  0  0  0  0  0  0  0  0
   21.6279   16.4689   12.1155 H   0  0  0  0  0  0  0  0  0  0  0  0
   26.8230   15.9261   12.5429 H   0  0  0  0  0  0  0  0  0  0  0  0
   26.7434   17.5286   11.8359 H   0  0  0  0  0  0  0  0  0  0  0  0
   27.2684   17.6479   14.4216 H   0  0  0  0  0  0  0  0  0  0  0  0
   24.7734   18.1374   16.0918 H   0  0  0  0  0  0  0  0  0  0  0  0
   25.8652   16.7187   16.1970 H   0  0  0  0  0  0  0  0  0  0  0  0
   26.3951   18.4562   17.9095 H   0  0  0  0  0  0  0  0  0  0  0  0
   27.7559   18.1831   16.7473 H   0  0  0  0  0  0  0  0  0  0  0  0
   26.4911   21.3701   14.9809 H   0  0  0  0  0  0  0  0  0  0  0  0
   25.5520   15.9706    7.5082 H   0  0  0  0  0  0  0  0  0  0  0  0
   29.9158   10.1332    7.6715 H   0  0  0  0  0  0  0  0  0  0  0  0
  1  2  1  0
  2  3  1  0
  3  4  2  0
  4  5  1  0
  5  6  1  0
  6  7  2  0
  6  8  2  0
  6  9  1  0
  9 10  1  0
 10 11  2  0
 11 12  1  0
 12 13  1  0
 13 14  2  0
 14 15  1  0
 15 16  2  0
 16 17  1  0
 17 18  2  0
 18 19  1  0
 19 20  1  0
 20 21  1  0
 21 22  1  0
 22 23  1  0
 23 24  1  0
 24 25  2  0
 24 26  1  0
 26 27  1  0
 27 28  2  0
 20 29  1  0
 29 30  2  0
 12 31  2  0
 31 32  1  0
  5 33  1  0
 33 34  2  0
 34  3  1  0
 32 10  1  0
 18 13  1  0
 27 21  1  0
 29 17  1  0
  1 35  1  0
  1 36  1  0
  1 37  1  0
  2 38  1  0
  2 39  1  0
  4 40  1  0
 11 41  1  0
 14 42  1  0
 15 43  1  0
 16 44  1  0
 19 45  1  0
 19 46  1  0
 21 47  1  1
 22 48  1  0
 22 49  1  0
 23 50  1  0
 23 51  1  0
 26 52  1  0
 31 53  1  0
 33 54  1  0
M  END
>  <meeko>  (274) 
{"is_sidechain": [true], "free_energy": -13.41, "intermolecular_energy": 0.0, "internal_energy": -13.41, "cluster_size": 14, "cluster_id": 1, "rank_in_cluster": 1}

>  <_RMSD_MCS_to_ref>  (274) 
1.137192546972099

$$$$
ligand
     RDKit          3D

 61 66  0  0  0  0  0  0  0  0999 V2000
   24.8710    9.6160    7.7820 C   0  0  0  0  0  0  0  0  0  0  0  0
   25.4240   10.9650    7.3490 C   0  0  0  0  0  0  0  0  0  0  0  0
   26.8910   10.9120    7.1070 C   0  0  0  0  0  0  0  0  0  0  0  0
   27.9210   11.3800    7.8990 C   0  0  0  0  0  0  0  0  0  0  0  0
   29.0500   11.0930    7.1840 N   0  0  0  0  0  0  0  0  0  0  0  0
   30.6000   11.6870    7.4920 S   0  0  0  0  0  6  0  0  0  0  0  0
   31.4440   11.0070    6.5260 O   0  0  0  0  0  0  0  0  0  0  0  0
   30.8110   11.5070    8.9180 O   0  0  0  0  0  0  0  0  0  0  0  0
   30.6170   13.2850    7.1440 O   0  0  0  0  0  0  0  0  0  0  0  0
   29.4310   13.9860    7.1320 C   0  0  0  0  0  0  0  0  0  0  0  0
   29.1170   14.7080    5.9780 C   0  0  0  0  0  0  0  0  0  0  0  0
   27.9360   15.4410    5.8990 C   0  0  0  0  0  0  0  0  0  0  0  0
   27.0510   15.4850    6.9830 C   0  0  0  0  0  0  0  0  0  0  0  0
   27.3620   14.7860    8.1690 C   0  0  0  0  0  0  0  0  0  0  0  0
   26.7140   14.6310    9.4310 C   0  0  0  0  0  0  0  0  0  0  0  0
   25.4500   15.1630    9.8930 C   0  0  0  0  0  0  0  0  0  0  0  0
   24.2470   14.7750    9.2830 C   0  0  0  0  0  0  0  0  0  0  0  0
   23.0090   15.2720    9.7360 C   0  0  0  0  0  0  0  0  0  0  0  0
   22.9550   16.1680   10.8030 C   0  0  0  0  0  0  0  0  0  0  0  0
   24.1530   16.5410   11.3810 C   0  0  0  0  0  0  0  0  0  0  0  0
   25.3890   16.0580   10.9500 C   0  0  0  0  0  0  0  0  0  0  0  0
   26.4810   16.6480   11.7780 C   0  0  0  0  0  0  0  0  0  0  0  0
   25.7610   17.5670   12.6510 N   0  0  0  0  0  0  0  0  0  0  0  0
   26.3620   18.2110   13.8120 C   0  0  2  0  0  0  0  0  0  0  0  0
   25.8940   17.5920   15.1270 C   0  0  0  0  0  0  0  0  0  0  0  0
   26.6290   18.2510   16.2840 C   0  0  0  0  0  0  0  0  0  0  0  0
   26.4450   19.7500   16.2640 C   0  0  0  0  0  0  0  0  0  0  0  0
   26.3240   20.4110   17.2900 O   0  0  0  0  0  0  0  0  0  0  0  0
   26.4250   20.3490   15.0300 N   0  0  0  0  0  0  0  0  0  0  0  0
   26.0950   19.7250   13.8480 C   0  0  0  0  0  0  0  0  0  0  0  0
   25.6110   20.3700   12.9210 O   0  0  0  0  0  0  0  0  0  0  0  0
   24.3870   17.4620   12.4970 C   0  0  0  0  0  0  0  0  0  0  0  0
   23.5180   18.0150   13.1430 O   0  0  0  0  0  0  0  0  0  0  0  0
   27.5140   13.8270   10.2140 C   0  0  0  0  0  0  0  0  0  0  0  0
   28.6200   13.4920    9.4800 N   0  0  0  0  0  0  0  0  0  0  0  0
   28.5510   14.0540    8.2220 C   0  0  0  0  0  0  0  0  0  0  0  0
   28.6960   10.5150    6.0080 C   0  0  0  0  0  0  0  0  0  0  0  0
   27.3900   10.3700    5.9400 N   0  0  0  0  0  0  0  0  0  0  0  0
   24.8497    9.5640    8.8806 H   0  0  0  0  0  0  0  0  0  0  0  0
   23.8507    9.4948    7.3893 H   0  0  0  0  0  0  0  0  0  0  0  0
   25.5127    8.8135    7.3893 H   0  0  0  0  0  0  0  0  0  0  0  0
   24.9214   11.2738    6.4205 H   0  0  0  0  0  0  0  0  0  0  0  0
   25.2382   11.6853    8.1593 H   0  0  0  0  0  0  0  0  0  0  0  0
   27.8492   11.8713    8.8806 H   0  0  0  0  0  0  0  0  0  0  0  0
   29.8096   14.6973    5.1235 H   0  0  0  0  0  0  0  0  0  0  0  0
   27.6961   15.9904    4.9767 H   0  0  0  0  0  0  0  0  0  0  0  0
   26.1172   16.0619    6.9106 H   0  0  0  0  0  0  0  0  0  0  0  0
   24.2711   14.0716    8.4377 H   0  0  0  0  0  0  0  0  0  0  0  0
   22.0787   14.9510    9.2446 H   0  0  0  0  0  0  0  0  0  0  0  0
   21.9960   16.5624   11.1701 H   0  0  0  0  0  0  0  0  0  0  0  0
   27.0003   15.8726   12.3603 H   0  0  0  0  0  0  0  0  0  0  0  0
   27.2653   17.1370   11.1815 H   0  0  0  0  0  0  0  0  0  0  0  0
   27.4441   18.0446   13.7053 H   0  0  0  0  0  0  0  0  0  0  0  0
   24.8115   17.7495   15.2423 H   0  0  0  0  0  0  0  0  0  0  0  0
   26.1076   16.5129   15.1223 H   0  0  0  0  0  0  0  0  0  0  0  0
   26.2363   17.8538   17.2316 H   0  0  0  0  0  0  0  0  0  0  0  0
   27.7022   18.0301   16.1864 H   0  0  0  0  0  0  0  0  0  0  0  0
   26.6774   21.3466   14.9841 H   0  0  0  0  0  0  0  0  0  0  0  0
   27.3015   13.5106   11.2458 H   0  0  0  0  0  0  0  0  0  0  0  0
   29.3943   12.9035    9.8191 H   0  0  0  0  0  0  0  0  0  0  0  0
   29.4023   10.2104    5.2216 H   0  0  0  0  0  0  0  0  0  0  0  0
  1  2  1  0
  2  3  1  0
  3  4  2  0
  4  5  1  0
  5  6  1  0
  6  7  2  0
  6  8  2  0
  6  9  1  0
  9 10  1  0
 10 11  2  0
 11 12  1  0
 12 13  2  0
 13 14  1  0
 14 15  1  0
 15 16  1  0
 16 17  2  0
 17 18  1  0
 18 19  2  0
 19 20  1  0
 20 21  2  0
 21 22  1  0
 22 23  1  0
 23 24  1  0
 24 25  1  0
 25 26  1  0
 26 27  1  0
 27 28  2  0
 27 29  1  0
 29 30  1  0
 30 31  2  0
 23 32  1  0
 32 33  2  0
 15 34  2  0
 34 35  1  0
 35 36  1  0
  5 37  1  0
 37 38  2  0
 38  3  1  0
 36 10  1  0
 36 14  2  0
 21 16  1  0
 30 24  1  0
 32 20  1  0
  1 39  1  0
  1 40  1  0
  1 41  1  0
  2 42  1  0
  2 43  1  0
  4 44  1  0
 11 45  1  0
 12 46  1  0
 13 47  1  0
 17 48  1  0
 18 49  1  0
 19 50  1  0
 22 51  1  0
 22 52  1  0
 24 53  1  6
 25 54  1  0
 25 55  1  0
 26 56  1  0
 26 57  1  0
 29 58  1  0
 34 59  1  0
 35 60  1  0
 37 61  1  0
M  END
>  <meeko>  (275) 
{"is_sidechain": [true], "free_energy": -13.41, "intermolecular_energy": 0.0, "internal_energy": -13.41, "cluster_size": 19, "cluster_id": 1, "rank_in_cluster": 1}

>  <_RMSD_MCS_to_ref>  (275) 
1.144768317171645

$$$$
ligand
     RDKit          3D

 60 65  0  0  0  0  0  0  0  0999 V2000
   24.8540    9.4020    7.6050 C   0  0  0  0  0  0  0  0  0  0  0  0
   25.5230   10.7550    7.4270 C   0  0  0  0  0  0  0  0  0  0  0  0
   26.8470   10.6420    6.7560 C   0  0  0  0  0  0  0  0  0  0  0  0
   27.2970   11.2780    5.6160 C   0  0  0  0  0  0  0  0  0  0  0  0
   28.5790   10.8300    5.4660 N   0  0  0  0  0  0  0  0  0  0  0  0
   29.7440   11.4980    4.4430 S   0  0  0  0  0  6  0  0  0  0  0  0
   29.2780   11.2080    3.0990 O   0  0  0  0  0  0  0  0  0  0  0  0
   31.0010   10.9590    4.9300 O   0  0  0  0  0  0  0  0  0  0  0  0
   29.7560   13.1180    4.6890 O   0  0  0  0  0  0  0  0  0  0  0  0
   29.0160   13.6330    5.7270 C   0  0  0  0  0  0  0  0  0  0  0  0
   27.8940   14.4220    5.4610 C   0  0  0  0  0  0  0  0  0  0  0  0
   27.1300   14.9440    6.5100 C   0  0  0  0  0  0  0  0  0  0  0  0
   27.4570   14.7180    7.8640 C   0  0  0  0  0  0  0  0  0  0  0  0
   26.6510   15.2500    8.9720 C   0  0  0  0  0  0  0  0  0  0  0  0
   25.2970   14.8550    9.1300 C   0  0  0  0  0  0  0  0  0  0  0  0
   24.5020   15.3450   10.1710 C   0  0  0  0  0  0  0  0  0  0  0  0
   25.0860   16.2370   11.0450 C   0  0  0  0  0  0  0  0  0  0  0  0
   26.4090   16.6470   10.9260 C   0  0  0  0  0  0  0  0  0  0  0  0
   27.2010   16.1630    9.8970 C   0  0  0  0  0  0  0  0  0  0  0  0
   26.7540   17.5840   12.0340 C   0  0  0  0  0  0  0  0  0  0  0  0
   25.4780   17.7600   12.7130 N   0  0  0  0  0  0  0  0  0  0  0  0
   25.3910   18.4450   13.9980 C   0  0  1  0  0  0  0  0  0  0  0  0
   26.2130   17.7850   15.1040 C   0  0  0  0  0  0  0  0  0  0  0  0
   26.0020   18.5380   16.4070 C   0  0  0  0  0  0  0  0  0  0  0  0
   26.3560   19.9990   16.2600 C   0  0  0  0  0  0  0  0  0  0  0  0
   26.6620   20.6980   17.2210 O   0  0  0  0  0  0  0  0  0  0  0  0
   26.2360   20.5390   15.0040 N   0  0  0  0  0  0  0  0  0  0  0  0
   25.7600   19.9310   13.8640 C   0  0  0  0  0  0  0  0  0  0  0  0
   25.5530   20.5940   12.8490 O   0  0  0  0  0  0  0  0  0  0  0  0
   24.5050   16.9040   12.2160 C   0  0  0  0  0  0  0  0  0  0  0  0
   23.3850   16.7000   12.6420 O   0  0  0  0  0  0  0  0  0  0  0  0
   28.6140   13.9470    8.0760 C   0  0  0  0  0  0  0  0  0  0  0  0
   29.1330   13.5940    9.2900 O   0  0  0  0  0  0  0  0  0  0  0  0
   30.2450   12.8530    9.0600 C   0  0  0  0  0  0  0  0  0  0  0  0
   30.4600   12.7150    7.7090 C   0  0  0  0  0  0  0  0  0  0  0  0
   29.4030   13.4110    7.0600 C   0  0  0  0  0  0  0  0  0  0  0  0
   28.8790    9.9900    6.4910 C   0  0  0  0  0  0  0  0  0  0  0  0
   27.8410    9.8430    7.2870 N   0  0  0  0  0  0  0  0  0  0  0  0
   24.7464    9.1845    8.6779 H   0  0  0  0  0  0  0  0  0  0  0  0
   23.8606    9.4192    7.1330 H   0  0  0  0  0  0  0  0  0  0  0  0
   25.4708    8.6230    7.1330 H   0  0  0  0  0  0  0  0  0  0  0  0
   24.8698   11.3959    6.8167 H   0  0  0  0  0  0  0  0  0  0  0  0
   25.6856   11.1861    8.4259 H   0  0  0  0  0  0  0  0  0  0  0  0
   26.7486   11.9840    4.9750 H   0  0  0  0  0  0  0  0  0  0  0  0
   27.6096   14.6341    4.4198 H   0  0  0  0  0  0  0  0  0  0  0  0
   26.2443   15.5512    6.2714 H   0  0  0  0  0  0  0  0  0  0  0  0
   24.8606   14.1435    8.4135 H   0  0  0  0  0  0  0  0  0  0  0  0
   23.4540   15.0316   10.2876 H   0  0  0  0  0  0  0  0  0  0  0  0
   28.2479   16.4872    9.8021 H   0  0  0  0  0  0  0  0  0  0  0  0
   27.5041   17.1433   12.7071 H   0  0  0  0  0  0  0  0  0  0  0  0
   27.1969   18.5285   11.6851 H   0  0  0  0  0  0  0  0  0  0  0  0
   24.3379   18.3629   14.3050 H   0  0  0  0  0  0  0  0  0  0  0  0
   25.8907   16.7405   15.2273 H   0  0  0  0  0  0  0  0  0  0  0  0
   27.2791   17.8092   14.8339 H   0  0  0  0  0  0  0  0  0  0  0  0
   24.9459   18.4532   16.7029 H   0  0  0  0  0  0  0  0  0  0  0  0
   26.6573   18.0973   17.1727 H   0  0  0  0  0  0  0  0  0  0  0  0
   26.5388   21.5181   14.9017 H   0  0  0  0  0  0  0  0  0  0  0  0
   30.8852   12.4227    9.8442 H   0  0  0  0  0  0  0  0  0  0  0  0
   31.2863   12.1733    7.2256 H   0  0  0  0  0  0  0  0  0  0  0  0
   29.8536    9.5009    6.6355 H   0  0  0  0  0  0  0  0  0  0  0  0
  1  2  1  0
  2  3  1  0
  3  4  2  0
  4  5  1  0
  5  6  1  0
  6  7  2  0
  6  8  2  0
  6  9  1  0
  9 10  1  0
 10 11  2  0
 11 12  1  0
 12 13  2  0
 13 14  1  0
 14 15  2  0
 15 16  1  0
 16 17  2  0
 17 18  1  0
 18 19  2  0
 18 20  1  0
 20 21  1  0
 21 22  1  0
 22 23  1  0
 23 24  1  0
 24 25  1  0
 25 26  2  0
 25 27  1  0
 27 28  1  0
 28 29  2  0
 21 30  1  0
 30 31  2  0
 13 32  1  0
 32 33  1  0
 33 34  1  0
 34 35  2  0
 35 36  1  0
  5 37  1  0
 37 38  2  0
 38  3  1  0
 36 10  1  0
 19 14  1  0
 28 22  1  0
 36 32  2  0
 30 17  1  0
  1 39  1  0
  1 40  1  0
  1 41  1  0
  2 42  1  0
  2 43  1  0
  4 44  1  0
 11 45  1  0
 12 46  1  0
 15 47  1  0
 16 48  1  0
 19 49  1  0
 20 50  1  0
 20 51  1  0
 22 52  1  1
 23 53  1  0
 23 54  1  0
 24 55  1  0
 24 56  1  0
 27 57  1  0
 34 58  1  0
 35 59  1  0
 37 60  1  0
M  END
>  <meeko>  (276) 
{"is_sidechain": [true], "free_energy": -13.4, "intermolecular_energy": 0.0, "internal_energy": -13.4, "cluster_size": 20, "cluster_id": 1, "rank_in_cluster": 1}

>  <_RMSD_MCS_to_ref>  (276) 
0.8227707254555586

$$$$
ligand
     RDKit          3D

 57 61  0  0  0  0  0  0  0  0999 V2000
   24.8540    9.4020    7.6050 C   0  0  0  0  0  0  0  0  0  0  0  0
   25.5230   10.7550    7.4270 C   0  0  0  0  0  0  0  0  0  0  0  0
   25.4820   11.2220    6.0140 C   0  0  0  0  0  0  0  0  0  0  0  0
   26.4510   11.8870    5.2900 C   0  0  0  0  0  0  0  0  0  0  0  0
   25.8990   12.0400    4.0510 N   0  0  0  0  0  0  0  0  0  0  0  0
   26.5180   12.9940    2.8060 S   0  0  0  0  0  6  0  0  0  0  0  0
   25.5990   12.7960    1.7000 O   0  0  0  0  0  0  0  0  0  0  0  0
   27.9140   12.6110    2.7120 O   0  0  0  0  0  0  0  0  0  0  0  0
   26.4100   14.5330    3.3330 O   0  0  0  0  0  0  0  0  0  0  0  0
   26.1610   14.8490    4.6430 C   0  0  0  0  0  0  0  0  0  0  0  0
   27.1170   15.2220    5.5850 C   0  0  0  0  0  0  0  0  0  0  0  0
   26.7290   15.5220    6.8970 C   0  0  0  0  0  0  0  0  0  0  0  0
   25.3840   15.4540    7.2940 C   0  0  0  0  0  0  0  0  0  0  0  0
   24.9830   15.7720    8.6740 C   0  0  0  0  0  0  0  0  0  0  0  0
   23.7330   15.3310    9.1800 C   0  0  0  0  0  0  0  0  0  0  0  0
   23.3260   15.6240   10.4850 C   0  0  0  0  0  0  0  0  0  0  0  0
   24.1910   16.3600   11.2670 C   0  0  0  0  0  0  0  0  0  0  0  0
   25.4240   16.8100   10.8050 C   0  0  0  0  0  0  0  0  0  0  0  0
   25.8330   16.5240    9.5120 C   0  0  0  0  0  0  0  0  0  0  0  0
   26.1140   17.5950   11.8710 C   0  0  0  0  0  0  0  0  0  0  0  0
   25.2050   17.4620   13.0020 N   0  0  0  0  0  0  0  0  0  0  0  0
   25.3130   18.2590   14.2180 C   0  0  1  0  0  0  0  0  0  0  0  0
   26.2990   17.6640   15.2200 C   0  0  0  0  0  0  0  0  0  0  0  0
   26.2870   18.4970   16.4930 C   0  0  0  0  0  0  0  0  0  0  0  0
   26.5850   19.9480   16.1990 C   0  0  0  0  0  0  0  0  0  0  0  0
   27.2350   20.6540   16.9650 O   0  0  0  0  0  0  0  0  0  0  0  0
   26.0750   20.4550   15.0300 N   0  0  0  0  0  0  0  0  0  0  0  0
   25.7120   19.7150   13.9280 C   0  0  0  0  0  0  0  0  0  0  0  0
   25.7310   20.2220   12.8090 O   0  0  0  0  0  0  0  0  0  0  0  0
   24.0290   16.8130   12.6530 C   0  0  0  0  0  0  0  0  0  0  0  0
   23.0400   16.6350   13.3380 O   0  0  0  0  0  0  0  0  0  0  0  0
   24.4350   15.0730    6.3350 C   0  0  0  0  0  0  0  0  0  0  0  0
   24.8190   14.7740    5.0230 C   0  0  0  0  0  0  0  0  0  0  0  0
   24.6280   11.5610    4.0690 C   0  0  0  0  0  0  0  0  0  0  0  0
   24.3520   11.0320    5.2430 N   0  0  0  0  0  0  0  0  0  0  0  0
   24.7464    9.1845    8.6779 H   0  0  0  0  0  0  0  0  0  0  0  0
   23.8606    9.4192    7.1330 H   0  0  0  0  0  0  0  0  0  0  0  0
   25.4708    8.6230    7.1330 H   0  0  0  0  0  0  0  0  0  0  0  0
   25.0052   11.4919    8.0586 H   0  0  0  0  0  0  0  0  0  0  0  0
   26.5789   10.6500    7.7171 H   0  0  0  0  0  0  0  0  0  0  0  0
   27.4422   12.2182    5.6333 H   0  0  0  0  0  0  0  0  0  0  0  0
   28.1773   15.2810    5.2983 H   0  0  0  0  0  0  0  0  0  0  0  0
   27.4934   15.8168    7.6310 H   0  0  0  0  0  0  0  0  0  0  0  0
   23.0678   14.7442    8.5295 H   0  0  0  0  0  0  0  0  0  0  0  0
   22.3551   15.2813   10.8723 H   0  0  0  0  0  0  0  0  0  0  0  0
   26.8072   16.8786    9.1442 H   0  0  0  0  0  0  0  0  0  0  0  0
   27.1011   17.1683   12.1025 H   0  0  0  0  0  0  0  0  0  0  0  0
   26.3101   18.6396   11.5877 H   0  0  0  0  0  0  0  0  0  0  0  0
   24.3064   18.2461   14.6615 H   0  0  0  0  0  0  0  0  0  0  0  0
   26.0055   16.6302   15.4547 H   0  0  0  0  0  0  0  0  0  0  0  0
   27.3104   17.6668   14.7875 H   0  0  0  0  0  0  0  0  0  0  0  0
   25.2945   18.4223   16.9613 H   0  0  0  0  0  0  0  0  0  0  0  0
   27.0647   18.1117   17.1688 H   0  0  0  0  0  0  0  0  0  0  0  0
   25.9536   21.4762   14.9726 H   0  0  0  0  0  0  0  0  0  0  0  0
   23.3739   15.0082    6.6178 H   0  0  0  0  0  0  0  0  0  0  0  0
   24.0585   14.4777    4.2856 H   0  0  0  0  0  0  0  0  0  0  0  0
   23.9277   11.6083    3.2220 H   0  0  0  0  0  0  0  0  0  0  0  0
  1  2  1  0
  2  3  1  0
  3  4  2  0
  4  5  1  0
  5  6  1  0
  6  7  2  0
  6  8  2  0
  6  9  1  0
  9 10  1  0
 10 11  2  0
 11 12  1  0
 12 13  2  0
 13 14  1  0
 14 15  2  0
 15 16  1  0
 16 17  2  0
 17 18  1  0
 18 19  2  0
 18 20  1  0
 20 21  1  0
 21 22  1  0
 22 23  1  0
 23 24  1  0
 24 25  1  0
 25 26  2  0
 25 27  1  0
 27 28  1  0
 28 29  2  0
 21 30  1  0
 30 31  2  0
 13 32  1  0
 32 33  2  0
  5 34  1  0
 34 35  2  0
 35  3  1  0
 33 10  1  0
 19 14  1  0
 28 22  1  0
 30 17  1  0
  1 36  1  0
  1 37  1  0
  1 38  1  0
  2 39  1  0
  2 40  1  0
  4 41  1  0
 11 42  1  0
 12 43  1  0
 15 44  1  0
 16 45  1  0
 19 46  1  0
 20 47  1  0
 20 48  1  0
 22 49  1  1
 23 50  1  0
 23 51  1  0
 24 52  1  0
 24 53  1  0
 27 54  1  0
 32 55  1  0
 33 56  1  0
 34 57  1  0
M  END
>  <meeko>  (277) 
{"is_sidechain": [true], "free_energy": -13.4, "intermolecular_energy": 0.0, "internal_energy": -13.4, "cluster_size": 20, "cluster_id": 1, "rank_in_cluster": 1}

>  <_RMSD_MCS_to_ref>  (277) 
0.7225215875283202

$$$$
ligand
     RDKit          3D

 62 67  0  0  0  0  0  0  0  0999 V2000
   24.8710    9.6160    7.7820 C   0  0  0  0  0  0  0  0  0  0  0  0
   25.4240   10.9650    7.3490 C   0  0  0  0  0  0  0  0  0  0  0  0
   26.8330   11.1620    7.7860 C   0  0  0  0  0  0  0  0  0  0  0  0
   27.3370   12.0520    8.7130 C   0  0  0  0  0  0  0  0  0  0  0  0
   28.6820   11.8140    8.7050 N   0  0  0  0  0  0  0  0  0  0  0  0
   29.8120   12.5310    9.7270 S   0  0  0  0  0  6  0  0  0  0  0  0
   31.1180   12.1980    9.1840 O   0  0  0  0  0  0  0  0  0  0  0  0
   29.4270   12.0550   11.0440 O   0  0  0  0  0  0  0  0  0  0  0  0
   29.5750   14.1530    9.7050 O   0  0  0  0  0  0  0  0  0  0  0  0
   28.4930   14.6600    9.0220 C   0  0  0  0  0  0  0  0  0  0  0  0
   27.3220   14.8620    9.7610 C   0  0  0  0  0  0  0  0  0  0  0  0
   26.1810   15.3800    9.1420 C   0  0  0  0  0  0  0  0  0  0  0  0
   24.9610   15.6330    9.9100 C   0  0  0  0  0  0  0  0  0  0  0  0
   23.6930   15.3070    9.3900 C   0  0  0  0  0  0  0  0  0  0  0  0
   22.5110   15.5600   10.1110 C   0  0  0  0  0  0  0  0  0  0  0  0
   22.5640   16.1460   11.3750 C   0  0  0  0  0  0  0  0  0  0  0  0
   23.8130   16.4520   11.8780 C   0  0  0  0  0  0  0  0  0  0  0  0
   24.9940   16.2080   11.1760 C   0  0  0  0  0  0  0  0  0  0  0  0
   26.1620   16.6600   11.9920 C   0  0  0  0  0  0  0  0  0  0  0  0
   25.5440   17.0840   13.2400 N   0  0  0  0  0  0  0  0  0  0  0  0
   26.3050   17.8150   14.2480 C   0  0  2  0  0  0  0  0  0  0  0  0
   25.7460   17.6760   15.6640 C   0  0  0  0  0  0  0  0  0  0  0  0
   26.6470   18.4240   16.6350 C   0  0  0  0  0  0  0  0  0  0  0  0
   26.7900   19.8760   16.2430 C   0  0  0  0  0  0  0  0  0  0  0  0
   27.0950   20.7460   17.0530 O   0  0  0  0  0  0  0  0  0  0  0  0
   26.6460   20.1720   14.9100 N   0  0  0  0  0  0  0  0  0  0  0  0
   26.4470   19.2970   13.8660 C   0  0  0  0  0  0  0  0  0  0  0  0
   26.4930   19.6980   12.7030 O   0  0  0  0  0  0  0  0  0  0  0  0
   24.1600   17.0650   13.1640 C   0  0  0  0  0  0  0  0  0  0  0  0
   23.3510   17.4820   13.9700 O   0  0  0  0  0  0  0  0  0  0  0  0
   26.2390   15.6600    7.7690 C   0  0  0  0  0  0  0  0  0  0  0  0
   27.4120   15.4290    7.0260 C   0  0  0  0  0  0  0  0  0  0  0  0
   27.4740   15.6970    5.6510 C   0  0  0  0  0  0  0  0  0  0  0  0
   28.6470   15.4510    4.9480 C   0  0  0  0  0  0  0  0  0  0  0  0
   29.7230   14.9400    5.6450 C   0  0  0  0  0  0  0  0  0  0  0  0
   29.6980   14.6700    6.9700 N   0  0  0  0  0  0  0  0  0  0  0  0
   28.5640   14.9150    7.6530 C   0  0  0  0  0  0  0  0  0  0  0  0
   28.9490   10.7870    7.8590 C   0  0  0  0  0  0  0  0  0  0  0  0
   27.8460   10.3830    7.2600 N   0  0  0  0  0  0  0  0  0  0  0  0
   24.8497    9.5640    8.8806 H   0  0  0  0  0  0  0  0  0  0  0  0
   23.8507    9.4948    7.3893 H   0  0  0  0  0  0  0  0  0  0  0  0
   25.5127    8.8135    7.3893 H   0  0  0  0  0  0  0  0  0  0  0  0
   25.3812   11.0296    6.2517 H   0  0  0  0  0  0  0  0  0  0  0  0
   24.8118   11.7478    7.8206 H   0  0  0  0  0  0  0  0  0  0  0  0
   26.7830   12.7843    9.3187 H   0  0  0  0  0  0  0  0  0  0  0  0
   27.2995   14.6124   10.8321 H   0  0  0  0  0  0  0  0  0  0  0  0
   23.6249   14.8429    8.3950 H   0  0  0  0  0  0  0  0  0  0  0  0
   21.5375   15.2932    9.6737 H   0  0  0  0  0  0  0  0  0  0  0  0
   21.6487   16.3559   11.9478 H   0  0  0  0  0  0  0  0  0  0  0  0
   26.8693   15.8347   12.1613 H   0  0  0  0  0  0  0  0  0  0  0  0
   26.7489   17.4538   11.5069 H   0  0  0  0  0  0  0  0  0  0  0  0
   27.3010   17.3484   14.2643 H   0  0  0  0  0  0  0  0  0  0  0  0
   24.7319   18.1004   15.7022 H   0  0  0  0  0  0  0  0  0  0  0  0
   25.7064   16.6125   15.9422 H   0  0  0  0  0  0  0  0  0  0  0  0
   26.2127   18.3663   17.6440 H   0  0  0  0  0  0  0  0  0  0  0  0
   27.6434   17.9585   16.6132 H   0  0  0  0  0  0  0  0  0  0  0  0
   26.6925   21.1703   14.6608 H   0  0  0  0  0  0  0  0  0  0  0  0
   25.3513   16.0677    7.2633 H   0  0  0  0  0  0  0  0  0  0  0  0
   26.5944   16.1018    5.1291 H   0  0  0  0  0  0  0  0  0  0  0  0
   28.7159   15.6571    3.8697 H   0  0  0  0  0  0  0  0  0  0  0  0
   30.6529   14.7412    5.0920 H   0  0  0  0  0  0  0  0  0  0  0  0
   29.9462   10.3523    7.6958 H   0  0  0  0  0  0  0  0  0  0  0  0
  1  2  1  0
  2  3  1  0
  3  4  2  0
  4  5  1  0
  5  6  1  0
  6  7  2  0
  6  8  2  0
  6  9  1  0
  9 10  1  0
 10 11  2  0
 11 12  1  0
 12 13  1  0
 13 14  2  0
 14 15  1  0
 15 16  2  0
 16 17  1  0
 17 18  2  0
 18 19  1  0
 19 20  1  0
 20 21  1  0
 21 22  1  0
 22 23  1  0
 23 24  1  0
 24 25  2  0
 24 26  1  0
 26 27  1  0
 27 28  2  0
 20 29  1  0
 29 30  2  0
 12 31  2  0
 31 32  1  0
 32 33  2  0
 33 34  1  0
 34 35  2  0
 35 36  1  0
 36 37  2  0
  5 38  1  0
 38 39  2  0
 39  3  1  0
 37 10  1  0
 18 13  1  0
 27 21  1  0
 37 32  1  0
 29 17  1  0
  1 40  1  0
  1 41  1  0
  1 42  1  0
  2 43  1  0
  2 44  1  0
  4 45  1  0
 11 46  1  0
 14 47  1  0
 15 48  1  0
 16 49  1  0
 19 50  1  0
 19 51  1  0
 21 52  1  1
 22 53  1  0
 22 54  1  0
 23 55  1  0
 23 56  1  0
 26 57  1  0
 31 58  1  0
 33 59  1  0
 34 60  1  0
 35 61  1  0
 38 62  1  0
M  END
>  <meeko>  (278) 
{"is_sidechain": [true], "free_energy": -13.4, "intermolecular_energy": 0.0, "internal_energy": -13.4, "cluster_size": 11, "cluster_id": 1, "rank_in_cluster": 1}

>  <_RMSD_MCS_to_ref>  (278) 
1.1844578694256895

$$$$
ligand
     RDKit          3D

 54 58  0  0  0  0  0  0  0  0999 V2000
   24.8540    9.4020    7.6050 C   0  0  0  0  0  0  0  0  0  0  0  0
   25.5230   10.7550    7.4270 C   0  0  0  0  0  0  0  0  0  0  0  0
   24.8320   11.5960    6.4120 C   0  0  0  0  0  0  0  0  0  0  0  0
   25.3290   12.1210    5.2350 C   0  0  0  0  0  0  0  0  0  0  0  0
   24.2640   12.7780    4.6860 N   0  0  0  0  0  0  0  0  0  0  0  0
   24.3280   13.8220    3.3640 S   0  0  0  0  0  6  0  0  0  0  0  0
   25.1350   13.1240    2.3810 O   0  0  0  0  0  0  0  0  0  0  0  0
   22.9430   14.1700    3.1020 O   0  0  0  0  0  0  0  0  0  0  0  0
   25.1280   15.1460    3.8790 O   0  0  0  0  0  0  0  0  0  0  0  0
   25.5550   15.2970    5.1530 C   0  0  0  0  0  0  0  0  0  0  0  0
   26.8880   15.1310    5.4440 C   0  0  0  0  0  0  0  0  0  0  0  0
   27.2160   15.3710    7.1040 S   0  0  0  0  0  0  0  0  0  0  0  0
   25.5660   15.6940    7.4560 C   0  0  0  0  0  0  0  0  0  0  0  0
   25.1460   16.0230    8.8250 C   0  0  0  0  0  0  0  0  0  0  0  0
   23.8790   15.5880    9.2880 C   0  0  0  0  0  0  0  0  0  0  0  0
   23.4410   15.8700   10.5850 C   0  0  0  0  0  0  0  0  0  0  0  0
   24.2970   16.5830   11.4010 C   0  0  0  0  0  0  0  0  0  0  0  0
   25.5490   17.0210   10.9770 C   0  0  0  0  0  0  0  0  0  0  0  0
   25.9880   16.7470    9.6910 C   0  0  0  0  0  0  0  0  0  0  0  0
   26.2250   17.7750   12.0740 C   0  0  0  0  0  0  0  0  0  0  0  0
   25.2840   17.6390   13.1790 N   0  0  0  0  0  0  0  0  0  0  0  0
   25.3750   18.4120   14.4110 C   0  0  1  0  0  0  0  0  0  0  0  0
   26.3020   17.7680   15.4370 C   0  0  0  0  0  0  0  0  0  0  0  0
   26.2740   18.5790   16.7240 C   0  0  0  0  0  0  0  0  0  0  0  0
   26.6330   20.0240   16.4660 C   0  0  0  0  0  0  0  0  0  0  0  0
   27.2800   20.6930   17.2660 O   0  0  0  0  0  0  0  0  0  0  0  0
   26.1820   20.5660   15.2890 N   0  0  0  0  0  0  0  0  0  0  0  0
   25.8350   19.8580   14.1610 C   0  0  0  0  0  0  0  0  0  0  0  0
   25.9130   20.3820   13.0520 O   0  0  0  0  0  0  0  0  0  0  0  0
   24.1070   17.0160   12.7890 C   0  0  0  0  0  0  0  0  0  0  0  0
   23.0970   16.8450   13.4440 O   0  0  0  0  0  0  0  0  0  0  0  0
   24.7910   15.6240    6.3100 C   0  0  0  0  0  0  0  0  0  0  0  0
   23.2130   12.7130    5.5420 C   0  0  0  0  0  0  0  0  0  0  0  0
   23.5180   11.9790    6.5910 N   0  0  0  0  0  0  0  0  0  0  0  0
   24.7464    9.1845    8.6779 H   0  0  0  0  0  0  0  0  0  0  0  0
   23.8606    9.4192    7.1330 H   0  0  0  0  0  0  0  0  0  0  0  0
   25.4708    8.6230    7.1330 H   0  0  0  0  0  0  0  0  0  0  0  0
   25.5133   11.2843    8.3912 H   0  0  0  0  0  0  0  0  0  0  0  0
   26.5507   10.5794    7.0762 H   0  0  0  0  0  0  0  0  0  0  0  0
   26.3485   12.0309    4.8320 H   0  0  0  0  0  0  0  0  0  0  0  0
   27.6533   14.8740    4.6968 H   0  0  0  0  0  0  0  0  0  0  0  0
   23.2263   15.0161    8.6120 H   0  0  0  0  0  0  0  0  0  0  0  0
   22.4548   15.5376   10.9412 H   0  0  0  0  0  0  0  0  0  0  0  0
   26.9772   17.0893    9.3528 H   0  0  0  0  0  0  0  0  0  0  0  0
   27.1980   17.3265   12.3233 H   0  0  0  0  0  0  0  0  0  0  0  0
   26.4472   18.8206   11.8143 H   0  0  0  0  0  0  0  0  0  0  0  0
   24.3528   18.4270   14.8170 H   0  0  0  0  0  0  0  0  0  0  0  0
   25.9646   16.7415   15.6429 H   0  0  0  0  0  0  0  0  0  0  0  0
   27.3278   17.7438   15.0407 H   0  0  0  0  0  0  0  0  0  0  0  0
   25.2636   18.5318   17.1562 H   0  0  0  0  0  0  0  0  0  0  0  0
   27.0130   18.1549   17.4197 H   0  0  0  0  0  0  0  0  0  0  0  0
   26.0957   21.5915   15.2459 H   0  0  0  0  0  0  0  0  0  0  0  0
   23.7055   15.8013    6.2950 H   0  0  0  0  0  0  0  0  0  0  0  0
   22.2422   13.2048    5.3816 H   0  0  0  0  0  0  0  0  0  0  0  0
  1  2  1  0
  2  3  1  0
  3  4  2  0
  4  5  1  0
  5  6  1  0
  6  7  2  0
  6  8  2  0
  6  9  1  0
  9 10  1  0
 10 11  2  0
 11 12  1  0
 12 13  1  0
 13 14  1  0
 14 15  2  0
 15 16  1  0
 16 17  2  0
 17 18  1  0
 18 19  2  0
 18 20  1  0
 20 21  1  0
 21 22  1  0
 22 23  1  0
 23 24  1  0
 24 25  1  0
 25 26  2  0
 25 27  1  0
 27 28  1  0
 28 29  2  0
 21 30  1  0
 30 31  2  0
 13 32  2  0
  5 33  1  0
 33 34  2  0
 34  3  1  0
 32 10  1  0
 19 14  1  0
 28 22  1  0
 30 17  1  0
  1 35  1  0
  1 36  1  0
  1 37  1  0
  2 38  1  0
  2 39  1  0
  4 40  1  0
 11 41  1  0
 15 42  1  0
 16 43  1  0
 19 44  1  0
 20 45  1  0
 20 46  1  0
 22 47  1  1
 23 48  1  0
 23 49  1  0
 24 50  1  0
 24 51  1  0
 27 52  1  0
 32 53  1  0
 33 54  1  0
M  END
>  <meeko>  (279) 
{"is_sidechain": [true], "free_energy": -13.39, "intermolecular_energy": 0.0, "internal_energy": -13.39, "cluster_size": 20, "cluster_id": 1, "rank_in_cluster": 1}

>  <_RMSD_MCS_to_ref>  (279) 
0.6630496043116058

$$$$
ligand
     RDKit          3D

 53 57  0  0  0  0  0  0  0  0999 V2000
   24.8540    9.4020    7.6050 C   0  0  0  0  0  0  0  0  0  0  0  0
   25.5230   10.7550    7.4270 C   0  0  0  0  0  0  0  0  0  0  0  0
   24.7880   11.6230    6.4670 C   0  0  0  0  0  0  0  0  0  0  0  0
   25.2400   12.2030    5.2980 C   0  0  0  0  0  0  0  0  0  0  0  0
   24.1460   12.8560    4.8020 N   0  0  0  0  0  0  0  0  0  0  0  0
   24.1530   13.9560    3.5210 S   0  0  0  0  0  6  0  0  0  0  0  0
   24.9670   13.3050    2.5100 O   0  0  0  0  0  0  0  0  0  0  0  0
   22.7480   14.2550    3.3120 O   0  0  0  0  0  0  0  0  0  0  0  0
   24.9190   15.2660    4.0910 O   0  0  0  0  0  0  0  0  0  0  0  0
   25.2000   15.3330    5.3720 C   0  0  0  0  0  0  0  0  0  0  0  0
   24.4270   15.6900    6.3660 N   0  0  0  0  0  0  0  0  0  0  0  0
   25.2450   15.5680    7.4700 C   0  0  0  0  0  0  0  0  0  0  0  0
   24.8090   15.8670    8.8250 C   0  0  0  0  0  0  0  0  0  0  0  0
   23.6590   15.2620    9.3890 C   0  0  0  0  0  0  0  0  0  0  0  0
   23.2520   15.5590   10.6950 C   0  0  0  0  0  0  0  0  0  0  0  0
   24.0100   16.4650   11.4090 C   0  0  0  0  0  0  0  0  0  0  0  0
   25.1440   17.0730   10.8820 C   0  0  0  0  0  0  0  0  0  0  0  0
   25.5560   16.7830    9.5910 C   0  0  0  0  0  0  0  0  0  0  0  0
   25.7590   17.9740   11.8980 C   0  0  0  0  0  0  0  0  0  0  0  0
   24.8070   17.9100   12.9990 N   0  0  0  0  0  0  0  0  0  0  0  0
   25.1190   18.4820   14.3040 C   0  0  1  0  0  0  0  0  0  0  0  0
   26.3190   17.8310   14.9900 C   0  0  0  0  0  0  0  0  0  0  0  0
   26.5180   18.4590   16.3610 C   0  0  0  0  0  0  0  0  0  0  0  0
   26.6890   19.9560   16.2590 C   0  0  0  0  0  0  0  0  0  0  0  0
   27.2660   20.6090   17.1250 O   0  0  0  0  0  0  0  0  0  0  0  0
   26.0960   20.5740   15.1870 N   0  0  0  0  0  0  0  0  0  0  0  0
   25.3090   20.0040   14.2120 C   0  0  0  0  0  0  0  0  0  0  0  0
   24.7250   20.7140   13.3940 O   0  0  0  0  0  0  0  0  0  0  0  0
   23.8240   16.9570   12.7780 C   0  0  0  0  0  0  0  0  0  0  0  0
   22.9660   16.5610   13.5420 O   0  0  0  0  0  0  0  0  0  0  0  0
   26.4900   15.1370    7.0670 C   0  0  0  0  0  0  0  0  0  0  0  0
   26.4690   14.9810    5.7110 O   0  0  0  0  0  0  0  0  0  0  0  0
   23.1220   12.7370    5.6860 C   0  0  0  0  0  0  0  0  0  0  0  0
   23.4720   11.9720    6.6990 N   0  0  0  0  0  0  0  0  0  0  0  0
   24.7464    9.1845    8.6779 H   0  0  0  0  0  0  0  0  0  0  0  0
   23.8606    9.4192    7.1330 H   0  0  0  0  0  0  0  0  0  0  0  0
   25.4708    8.6230    7.1330 H   0  0  0  0  0  0  0  0  0  0  0  0
   25.5639   11.2612    8.4028 H   0  0  0  0  0  0  0  0  0  0  0  0
   26.5316   10.5828    7.0231 H   0  0  0  0  0  0  0  0  0  0  0  0
   26.2498   12.1514    4.8648 H   0  0  0  0  0  0  0  0  0  0  0  0
   23.0759   14.5466    8.7905 H   0  0  0  0  0  0  0  0  0  0  0  0
   22.3611   15.0878   11.1359 H   0  0  0  0  0  0  0  0  0  0  0  0
   26.4531   17.2611    9.1707 H   0  0  0  0  0  0  0  0  0  0  0  0
   26.7486   17.6065   12.2072 H   0  0  0  0  0  0  0  0  0  0  0  0
   25.9319   18.9956   11.5286 H   0  0  0  0  0  0  0  0  0  0  0  0
   24.2467   18.2658   14.9384 H   0  0  0  0  0  0  0  0  0  0  0  0
   26.1365   16.7522   15.1033 H   0  0  0  0  0  0  0  0  0  0  0  0
   27.2208   17.9868   14.3797 H   0  0  0  0  0  0  0  0  0  0  0  0
   25.6397   18.2404   16.9862 H   0  0  0  0  0  0  0  0  0  0  0  0
   27.4292   18.0350   16.8082 H   0  0  0  0  0  0  0  0  0  0  0  0
   26.2596   21.5873   15.1015 H   0  0  0  0  0  0  0  0  0  0  0  0
   27.3521   14.9508    7.7244 H   0  0  0  0  0  0  0  0  0  0  0  0
   22.1371   13.2134    5.5717 H   0  0  0  0  0  0  0  0  0  0  0  0
  1  2  1  0
  2  3  1  0
  3  4  2  0
  4  5  1  0
  5  6  1  0
  6  7  2  0
  6  8  2  0
  6  9  1  0
  9 10  1  0
 10 11  2  0
 11 12  1  0
 12 13  1  0
 13 14  2  0
 14 15  1  0
 15 16  2  0
 16 17  1  0
 17 18  2  0
 17 19  1  0
 19 20  1  0
 20 21  1  0
 21 22  1  0
 22 23  1  0
 23 24  1  0
 24 25  2  0
 24 26  1  0
 26 27  1  0
 27 28  2  0
 20 29  1  0
 29 30  2  0
 12 31  2  0
 31 32  1  0
  5 33  1  0
 33 34  2  0
 34  3  1  0
 32 10  1  0
 18 13  1  0
 27 21  1  0
 29 16  1  0
  1 35  1  0
  1 36  1  0
  1 37  1  0
  2 38  1  0
  2 39  1  0
  4 40  1  0
 14 41  1  0
 15 42  1  0
 18 43  1  0
 19 44  1  0
 19 45  1  0
 21 46  1  1
 22 47  1  0
 22 48  1  0
 23 49  1  0
 23 50  1  0
 26 51  1  0
 31 52  1  0
 33 53  1  0
M  END
>  <meeko>  (280) 
{"is_sidechain": [true], "free_energy": -13.39, "intermolecular_energy": 0.0, "internal_energy": -13.39, "cluster_size": 19, "cluster_id": 1, "rank_in_cluster": 1}

>  <_RMSD_MCS_to_ref>  (280) 
0.455842443540894

$$$$
ligand
     RDKit          3D

 56 60  0  0  0  0  0  0  0  0999 V2000
   24.8540    9.4020    7.6050 C   0  0  0  0  0  0  0  0  0  0  0  0
   25.5230   10.7550    7.4270 C   0  0  0  0  0  0  0  0  0  0  0  0
   24.7090   11.6790    6.5900 C   0  0  0  0  0  0  0  0  0  0  0  0
   24.8950   12.0500    5.2730 C   0  0  0  0  0  0  0  0  0  0  0  0
   23.8470   12.8850    5.0080 N   0  0  0  0  0  0  0  0  0  0  0  0
   23.6770   13.8460    3.6350 S   0  0  0  0  0  6  0  0  0  0  0  0
   24.5270   13.2230    2.6380 O   0  0  0  0  0  0  0  0  0  0  0  0
   22.2440   13.9700    3.4430 O   0  0  0  0  0  0  0  0  0  0  0  0
   24.2930   15.3030    4.0250 O   0  0  0  0  0  0  0  0  0  0  0  0
   25.2660   15.4470    4.9780 C   0  0  0  0  0  0  0  0  0  0  0  0
   26.6360   15.3730    4.7750 C   0  0  0  0  0  0  0  0  0  0  0  0
   27.5480   15.5280    5.7640 N   0  0  0  0  0  0  0  0  0  0  0  0
   27.0680   15.7650    7.0080 C   0  0  0  0  0  0  0  0  0  0  0  0
   25.7160   15.8640    7.3320 C   0  0  0  0  0  0  0  0  0  0  0  0
   25.2630   16.1320    8.7040 C   0  0  0  0  0  0  0  0  0  0  0  0
   23.9860   15.6930    9.1390 C   0  0  0  0  0  0  0  0  0  0  0  0
   23.5290   15.9400   10.4380 C   0  0  0  0  0  0  0  0  0  0  0  0
   24.3720   16.6280   11.2860 C   0  0  0  0  0  0  0  0  0  0  0  0
   25.6310   17.0750   10.8940 C   0  0  0  0  0  0  0  0  0  0  0  0
   26.0890   16.8340    9.6080 C   0  0  0  0  0  0  0  0  0  0  0  0
   26.2870   17.8050   12.0190 C   0  0  0  0  0  0  0  0  0  0  0  0
   25.3270   17.6420   13.1050 N   0  0  0  0  0  0  0  0  0  0  0  0
   25.3920   18.3930   14.3530 C   0  0  1  0  0  0  0  0  0  0  0  0
   26.3140   17.7420   15.3800 C   0  0  0  0  0  0  0  0  0  0  0  0
   26.2580   18.5310   16.6800 C   0  0  0  0  0  0  0  0  0  0  0  0
   26.6010   19.9840   16.4520 C   0  0  0  0  0  0  0  0  0  0  0  0
   27.2290   20.6470   17.2710 O   0  0  0  0  0  0  0  0  0  0  0  0
   26.1610   20.5420   15.2790 N   0  0  0  0  0  0  0  0  0  0  0  0
   25.8370   19.8490   14.1340 C   0  0  0  0  0  0  0  0  0  0  0  0
   25.9250   20.3930   13.0350 O   0  0  0  0  0  0  0  0  0  0  0  0
   24.1580   17.0280   12.6800 C   0  0  0  0  0  0  0  0  0  0  0  0
   23.1360   16.8420   13.3130 O   0  0  0  0  0  0  0  0  0  0  0  0
   24.8110   15.6950    6.2750 C   0  0  0  0  0  0  0  0  0  0  0  0
   23.1240   13.0620    6.1430 C   0  0  0  0  0  0  0  0  0  0  0  0
   23.6070   12.3220    7.1200 N   0  0  0  0  0  0  0  0  0  0  0  0
   24.7464    9.1845    8.6779 H   0  0  0  0  0  0  0  0  0  0  0  0
   23.8606    9.4192    7.1330 H   0  0  0  0  0  0  0  0  0  0  0  0
   25.4708    8.6230    7.1330 H   0  0  0  0  0  0  0  0  0  0  0  0
   25.6699   11.2106    8.4174 H   0  0  0  0  0  0  0  0  0  0  0  0
   26.4828   10.5924    6.9149 H   0  0  0  0  0  0  0  0  0  0  0  0
   25.7029   11.7431    4.5925 H   0  0  0  0  0  0  0  0  0  0  0  0
   27.0014   15.1779    3.7560 H   0  0  0  0  0  0  0  0  0  0  0  0
   27.7980   15.8883    7.8216 H   0  0  0  0  0  0  0  0  0  0  0  0
   23.3394   15.1450    8.4378 H   0  0  0  0  0  0  0  0  0  0  0  0
   22.5372   15.5992   10.7699 H   0  0  0  0  0  0  0  0  0  0  0  0
   27.0836   17.1854    9.2960 H   0  0  0  0  0  0  0  0  0  0  0  0
   27.2565   17.3526   12.2745 H   0  0  0  0  0  0  0  0  0  0  0  0
   26.5116   18.8565   11.7870 H   0  0  0  0  0  0  0  0  0  0  0  0
   24.3649   18.3871   14.7466 H   0  0  0  0  0  0  0  0  0  0  0  0
   25.9869   16.7079   15.5637 H   0  0  0  0  0  0  0  0  0  0  0  0
   27.3452   17.7365   14.9972 H   0  0  0  0  0  0  0  0  0  0  0  0
   25.2425   18.4632   17.0974 H   0  0  0  0  0  0  0  0  0  0  0  0
   26.9935   18.1048   17.3782 H   0  0  0  0  0  0  0  0  0  0  0  0
   26.0646   21.5671   15.2522 H   0  0  0  0  0  0  0  0  0  0  0  0
   23.7301   15.7584    6.4692 H   0  0  0  0  0  0  0  0  0  0  0  0
   22.2553   13.7306    6.2344 H   0  0  0  0  0  0  0  0  0  0  0  0
  1  2  1  0
  2  3  1  0
  3  4  2  0
  4  5  1  0
  5  6  1  0
  6  7  2  0
  6  8  2  0
  6  9  1  0
  9 10  1  0
 10 11  2  0
 11 12  1  0
 12 13  2  0
 13 14  1  0
 14 15  1  0
 15 16  2  0
 16 17  1  0
 17 18  2  0
 18 19  1  0
 19 20  2  0
 19 21  1  0
 21 22  1  0
 22 23  1  0
 23 24  1  0
 24 25  1  0
 25 26  1  0
 26 27  2  0
 26 28  1  0
 28 29  1  0
 29 30  2  0
 22 31  1  0
 31 32  2  0
 14 33  2  0
  5 34  1  0
 34 35  2  0
 35  3  1  0
 33 10  1  0
 20 15  1  0
 29 23  1  0
 31 18  1  0
  1 36  1  0
  1 37  1  0
  1 38  1  0
  2 39  1  0
  2 40  1  0
  4 41  1  0
 11 42  1  0
 13 43  1  0
 16 44  1  0
 17 45  1  0
 20 46  1  0
 21 47  1  0
 21 48  1  0
 23 49  1  1
 24 50  1  0
 24 51  1  0
 25 52  1  0
 25 53  1  0
 28 54  1  0
 33 55  1  0
 34 56  1  0
M  END
>  <meeko>  (281) 
{"is_sidechain": [true], "free_energy": -13.38, "intermolecular_energy": 0.0, "internal_energy": -13.38, "cluster_size": 19, "cluster_id": 1, "rank_in_cluster": 1}

>  <_RMSD_MCS_to_ref>  (281) 
0.6829385038200726

$$$$
ligand
     RDKit          3D

 62 67  0  0  0  0  0  0  0  0999 V2000
   24.8540    9.4020    7.6050 C   0  0  0  0  0  0  0  0  0  0  0  0
   25.5230   10.7550    7.4270 C   0  0  0  0  0  0  0  0  0  0  0  0
   25.2660   11.3370    6.0810 C   0  0  0  0  0  0  0  0  0  0  0  0
   25.9410   12.3520    5.4320 C   0  0  0  0  0  0  0  0  0  0  0  0
   25.2890   12.4740    4.2390 N   0  0  0  0  0  0  0  0  0  0  0  0
   25.6610   13.5820    3.0230 S   0  0  0  0  0  6  0  0  0  0  0  0
   27.0370   13.2630    2.6830 O   0  0  0  0  0  0  0  0  0  0  0  0
   24.6140   13.4540    2.0240 O   0  0  0  0  0  0  0  0  0  0  0  0
   25.6540   15.0900    3.6340 O   0  0  0  0  0  0  0  0  0  0  0  0
   25.7680   15.2730    4.9860 C   0  0  0  0  0  0  0  0  0  0  0  0
   24.6130   15.2250    5.7360 C   0  0  0  0  0  0  0  0  0  0  0  0
   24.7170   15.4530    7.1040 C   0  0  0  0  0  0  0  0  0  0  0  0
   25.9680   15.7360    7.6950 C   0  0  0  0  0  0  0  0  0  0  0  0
   26.1580   15.9720    9.0890 C   0  0  0  0  0  0  0  0  0  0  0  0
   25.0540   15.9030   10.0550 C   0  0  0  0  0  0  0  0  0  0  0  0
   23.9210   15.1050    9.8070 C   0  0  0  0  0  0  0  0  0  0  0  0
   22.8610   15.0190   10.7310 C   0  0  0  0  0  0  0  0  0  0  0  0
   22.9060   15.7320   11.9270 C   0  0  0  0  0  0  0  0  0  0  0  0
   24.0180   16.5180   12.1550 C   0  0  0  0  0  0  0  0  0  0  0  0
   25.0760   16.6170   11.2500 C   0  0  0  0  0  0  0  0  0  0  0  0
   26.1240   17.5300   11.7970 C   0  0  0  0  0  0  0  0  0  0  0  0
   25.5340   17.9860   13.0490 N   0  0  0  0  0  0  0  0  0  0  0  0
   26.2940   18.6660   14.0900 C   0  0  2  0  0  0  0  0  0  0  0  0
   26.1420   18.0010   15.4540 C   0  0  0  0  0  0  0  0  0  0  0  0
   27.0320   18.7090   16.4630 C   0  0  0  0  0  0  0  0  0  0  0  0
   26.7290   20.1890   16.5190 C   0  0  0  0  0  0  0  0  0  0  0  0
   26.8050   20.8370   17.5570 O   0  0  0  0  0  0  0  0  0  0  0  0
   26.3800   20.7890   15.3350 N   0  0  0  0  0  0  0  0  0  0  0  0
   25.9040   20.1500   14.2130 C   0  0  0  0  0  0  0  0  0  0  0  0
   25.2140   20.7580   13.3970 O   0  0  0  0  0  0  0  0  0  0  0  0
   24.3320   17.3510   13.3200 C   0  0  0  0  0  0  0  0  0  0  0  0
   23.6480   17.4360   14.3220 O   0  0  0  0  0  0  0  0  0  0  0  0
   27.4450   16.2690    9.5640 C   0  0  0  0  0  0  0  0  0  0  0  0
   28.5260   16.3260    8.6920 C   0  0  0  0  0  0  0  0  0  0  0  0
   28.3290   16.0830    7.3340 C   0  0  0  0  0  0  0  0  0  0  0  0
   27.0770   15.7860    6.8200 C   0  0  0  0  0  0  0  0  0  0  0  0
   26.9770   15.5590    5.4980 N   0  0  0  0  0  0  0  0  0  0  0  0
   24.2790   11.5680    4.1840 C   0  0  0  0  0  0  0  0  0  0  0  0
   24.2350   10.8600    5.2950 N   0  0  0  0  0  0  0  0  0  0  0  0
   24.7464    9.1845    8.6779 H   0  0  0  0  0  0  0  0  0  0  0  0
   23.8606    9.4192    7.1330 H   0  0  0  0  0  0  0  0  0  0  0  0
   25.4708    8.6230    7.1330 H   0  0  0  0  0  0  0  0  0  0  0  0
   25.1355   11.4450    8.1911 H   0  0  0  0  0  0  0  0  0  0  0  0
   26.6086   10.6111    7.5309 H   0  0  0  0  0  0  0  0  0  0  0  0
   26.8050   12.9292    5.7932 H   0  0  0  0  0  0  0  0  0  0  0  0
   23.6403   15.0132    5.2679 H   0  0  0  0  0  0  0  0  0  0  0  0
   23.8151   15.4125    7.7324 H   0  0  0  0  0  0  0  0  0  0  0  0
   23.8619   14.5344    8.8684 H   0  0  0  0  0  0  0  0  0  0  0  0
   21.9913   14.3841   10.5064 H   0  0  0  0  0  0  0  0  0  0  0  0
   22.0884   15.6712   12.6603 H   0  0  0  0  0  0  0  0  0  0  0  0
   27.0655   16.9901   11.9762 H   0  0  0  0  0  0  0  0  0  0  0  0
   26.3850   18.3518   11.1140 H   0  0  0  0  0  0  0  0  0  0  0  0
   27.3460   18.5921   13.7773 H   0  0  0  0  0  0  0  0  0  0  0  0
   25.0934   18.0670   15.7797 H   0  0  0  0  0  0  0  0  0  0  0  0
   26.4369   16.9437   15.3822 H   0  0  0  0  0  0  0  0  0  0  0  0
   26.8645   18.2710   17.4580 H   0  0  0  0  0  0  0  0  0  0  0  0
   28.0794   18.5804   16.1526 H   0  0  0  0  0  0  0  0  0  0  0  0
   26.4840   21.8123   15.2812 H   0  0  0  0  0  0  0  0  0  0  0  0
   27.5996   16.4584   10.6365 H   0  0  0  0  0  0  0  0  0  0  0  0
   29.5312   16.5616    9.0717 H   0  0  0  0  0  0  0  0  0  0  0  0
   29.1907   16.1282    6.6517 H   0  0  0  0  0  0  0  0  0  0  0  0
   23.5941   11.4426    3.3324 H   0  0  0  0  0  0  0  0  0  0  0  0
  1  2  1  0
  2  3  1  0
  3  4  2  0
  4  5  1  0
  5  6  1  0
  6  7  2  0
  6  8  2  0
  6  9  1  0
  9 10  1  0
 10 11  2  0
 11 12  1  0
 12 13  2  0
 13 14  1  0
 14 15  1  0
 15 16  2  0
 16 17  1  0
 17 18  2  0
 18 19  1  0
 19 20  2  0
 20 21  1  0
 21 22  1  0
 22 23  1  0
 23 24  1  0
 24 25  1  0
 25 26  1  0
 26 27  2  0
 26 28  1  0
 28 29  1  0
 29 30  2  0
 22 31  1  0
 31 32  2  0
 14 33  2  0
 33 34  1  0
 34 35  2  0
 35 36  1  0
 36 37  2  0
  5 38  1  0
 38 39  2  0
 39  3  1  0
 37 10  1  0
 36 13  1  0
 20 15  1  0
 29 23  1  0
 31 19  1  0
  1 40  1  0
  1 41  1  0
  1 42  1  0
  2 43  1  0
  2 44  1  0
  4 45  1  0
 11 46  1  0
 12 47  1  0
 16 48  1  0
 17 49  1  0
 18 50  1  0
 21 51  1  0
 21 52  1  0
 23 53  1  6
 24 54  1  0
 24 55  1  0
 25 56  1  0
 25 57  1  0
 28 58  1  0
 33 59  1  0
 34 60  1  0
 35 61  1  0
 38 62  1  0
M  END
>  <meeko>  (282) 
{"is_sidechain": [true], "free_energy": -13.38, "intermolecular_energy": 0.0, "internal_energy": -13.38, "cluster_size": 3, "cluster_id": 2, "rank_in_cluster": 1}

>  <_RMSD_MCS_to_ref>  (282) 
0.825701116223862

$$$$
ligand
     RDKit          3D

 62 67  0  0  0  0  0  0  0  0999 V2000
   24.8710    9.6160    7.7820 C   0  0  0  0  0  0  0  0  0  0  0  0
   25.4240   10.9650    7.3490 C   0  0  0  0  0  0  0  0  0  0  0  0
   26.8820   10.9070    7.0590 C   0  0  0  0  0  0  0  0  0  0  0  0
   27.5430   11.1880    5.8800 C   0  0  0  0  0  0  0  0  0  0  0  0
   28.8630   11.0050    6.1800 N   0  0  0  0  0  0  0  0  0  0  0  0
   30.1710   11.5510    5.2580 S   0  0  0  0  0  6  0  0  0  0  0  0
   29.7500   11.4000    3.8780 O   0  0  0  0  0  0  0  0  0  0  0  0
   31.3070   10.8150    5.7810 O   0  0  0  0  0  0  0  0  0  0  0  0
   30.3930   13.1400    5.5990 O   0  0  0  0  0  0  0  0  0  0  0  0
   29.3200   13.8800    6.0140 C   0  0  0  0  0  0  0  0  0  0  0  0
   28.9600   13.9250    7.3550 C   0  0  0  0  0  0  0  0  0  0  0  0
   27.8780   14.7150    7.7490 C   0  0  0  0  0  0  0  0  0  0  0  0
   27.1270   15.4670    6.8130 C   0  0  0  0  0  0  0  0  0  0  0  0
   26.0320   16.2990    7.1640 C   0  0  0  0  0  0  0  0  0  0  0  0
   25.5620   16.4660    8.5450 C   0  0  0  0  0  0  0  0  0  0  0  0
   24.3780   15.8200    8.9760 C   0  0  0  0  0  0  0  0  0  0  0  0
   23.9050   15.9690   10.2830 C   0  0  0  0  0  0  0  0  0  0  0  0
   24.6420   16.7660   11.1350 C   0  0  0  0  0  0  0  0  0  0  0  0
   25.8090   17.4140   10.7410 C   0  0  0  0  0  0  0  0  0  0  0  0
   26.2830   17.2740    9.4480 C   0  0  0  0  0  0  0  0  0  0  0  0
   26.3520   18.2170   11.8740 C   0  0  0  0  0  0  0  0  0  0  0  0
   25.4530   17.8770   12.9690 N   0  0  0  0  0  0  0  0  0  0  0  0
   25.4790   18.6160   14.2270 C   0  0  2  0  0  0  0  0  0  0  0  0
   26.1440   19.9880   14.1230 C   0  0  0  0  0  0  0  0  0  0  0  0
   26.0610   20.6910   15.4680 C   0  0  0  0  0  0  0  0  0  0  0  0
   26.6880   19.8590   16.5620 C   0  0  0  0  0  0  0  0  0  0  0  0
   27.1110   20.3570   17.6020 O   0  0  0  0  0  0  0  0  0  0  0  0
   26.6910   18.5000   16.3780 N   0  0  0  0  0  0  0  0  0  0  0  0
   26.1290   17.7850   15.3450 C   0  0  0  0  0  0  0  0  0  0  0  0
   26.0740   16.5570   15.3970 O   0  0  0  0  0  0  0  0  0  0  0  0
   24.3830   17.1070   12.5390 C   0  0  0  0  0  0  0  0  0  0  0  0
   23.3940   16.7700   13.1590 O   0  0  0  0  0  0  0  0  0  0  0  0
   25.3840   16.9840    6.1340 C   0  0  0  0  0  0  0  0  0  0  0  0
   25.7190   16.9130    4.8280 N   0  0  0  0  0  0  0  0  0  0  0  0
   26.7650   16.1160    4.5220 C   0  0  0  0  0  0  0  0  0  0  0  0
   27.4990   15.3790    5.4510 C   0  0  0  0  0  0  0  0  0  0  0  0
   28.5830   14.5750    5.0590 C   0  0  0  0  0  0  0  0  0  0  0  0
   28.9740   10.6540    7.4880 C   0  0  0  0  0  0  0  0  0  0  0  0
   27.7860   10.5740    8.0490 N   0  0  0  0  0  0  0  0  0  0  0  0
   24.8497    9.5640    8.8806 H   0  0  0  0  0  0  0  0  0  0  0  0
   23.8507    9.4948    7.3893 H   0  0  0  0  0  0  0  0  0  0  0  0
   25.5127    8.8135    7.3893 H   0  0  0  0  0  0  0  0  0  0  0  0
   24.8948   11.2901    6.4411 H   0  0  0  0  0  0  0  0  0  0  0  0
   25.2718   11.6740    8.1762 H   0  0  0  0  0  0  0  0  0  0  0  0
   27.1057   11.4907    4.9171 H   0  0  0  0  0  0  0  0  0  0  0  0
   29.5225   13.3433    8.1001 H   0  0  0  0  0  0  0  0  0  0  0  0
   27.6021   14.7542    8.8131 H   0  0  0  0  0  0  0  0  0  0  0  0
   23.8197   15.1889    8.2689 H   0  0  0  0  0  0  0  0  0  0  0  0
   22.9832   15.4714   10.6185 H   0  0  0  0  0  0  0  0  0  0  0  0
   27.2049   17.7835    9.1309 H   0  0  0  0  0  0  0  0  0  0  0  0
   27.3871   17.9259   12.1060 H   0  0  0  0  0  0  0  0  0  0  0  0
   26.3938   19.2958   11.6632 H   0  0  0  0  0  0  0  0  0  0  0  0
   24.4253   18.8032   14.4814 H   0  0  0  0  0  0  0  0  0  0  0  0
   27.1992   19.8640   13.8379 H   0  0  0  0  0  0  0  0  0  0  0  0
   25.6281   20.5901   13.3606 H   0  0  0  0  0  0  0  0  0  0  0  0
   26.5894   21.6535   15.4024 H   0  0  0  0  0  0  0  0  0  0  0  0
   25.0001   20.8454   15.7141 H   0  0  0  0  0  0  0  0  0  0  0  0
   27.1726   17.9469   17.1012 H   0  0  0  0  0  0  0  0  0  0  0  0
   24.5368   17.6301    6.4073 H   0  0  0  0  0  0  0  0  0  0  0  0
   27.0592   16.0428    3.4646 H   0  0  0  0  0  0  0  0  0  0  0  0
   28.8498   14.4946    3.9949 H   0  0  0  0  0  0  0  0  0  0  0  0
   29.9252   10.4631    8.0064 H   0  0  0  0  0  0  0  0  0  0  0  0
  1  2  1  0
  2  3  1  0
  3  4  2  0
  4  5  1  0
  5  6  1  0
  6  7  2  0
  6  8  2  0
  6  9  1  0
  9 10  1  0
 10 11  2  0
 11 12  1  0
 12 13  2  0
 13 14  1  0
 14 15  1  0
 15 16  2  0
 16 17  1  0
 17 18  2  0
 18 19  1  0
 19 20  2  0
 19 21  1  0
 21 22  1  0
 22 23  1  0
 23 24  1  0
 24 25  1  0
 25 26  1  0
 26 27  2  0
 26 28  1  0
 28 29  1  0
 29 30  2  0
 22 31  1  0
 31 32  2  0
 14 33  2  0
 33 34  1  0
 34 35  2  0
 35 36  1  0
 36 37  2  0
  5 38  1  0
 38 39  2  0
 39  3  1  0
 37 10  1  0
 36 13  1  0
 20 15  1  0
 29 23  1  0
 31 18  1  0
  1 40  1  0
  1 41  1  0
  1 42  1  0
  2 43  1  0
  2 44  1  0
  4 45  1  0
 11 46  1  0
 12 47  1  0
 16 48  1  0
 17 49  1  0
 20 50  1  0
 21 51  1  0
 21 52  1  0
 23 53  1  1
 24 54  1  0
 24 55  1  0
 25 56  1  0
 25 57  1  0
 28 58  1  0
 33 59  1  0
 35 60  1  0
 37 61  1  0
 38 62  1  0
M  END
>  <meeko>  (283) 
{"is_sidechain": [true], "free_energy": -13.38, "intermolecular_energy": 0.0, "internal_energy": -13.38, "cluster_size": 19, "cluster_id": 1, "rank_in_cluster": 1}

>  <_RMSD_MCS_to_ref>  (283) 
1.718181413128734

$$$$
ligand
     RDKit          3D

 60 65  0  0  0  0  0  0  0  0999 V2000
   24.8710    9.6170    7.7820 C   0  0  0  0  0  0  0  0  0  0  0  0
   25.4240   10.9640    7.3490 C   0  0  0  0  0  0  0  0  0  0  0  0
   26.8150   11.1850    7.8320 C   0  0  0  0  0  0  0  0  0  0  0  0
   27.2610   12.0090    8.8460 C   0  0  0  0  0  0  0  0  0  0  0  0
   28.6140   11.8240    8.8620 N   0  0  0  0  0  0  0  0  0  0  0  0
   29.7260   12.8200    9.6490 S   0  0  0  0  0  6  0  0  0  0  0  0
   31.0220   12.3880    9.1600 O   0  0  0  0  0  0  0  0  0  0  0  0
   29.3730   12.7230   11.0540 O   0  0  0  0  0  0  0  0  0  0  0  0
   29.4300   14.3250    9.0820 O   0  0  0  0  0  0  0  0  0  0  0  0
   28.8420   14.4480    7.8470 C   0  0  0  0  0  0  0  0  0  0  0  0
   29.5760   14.0310    6.7280 C   0  0  0  0  0  0  0  0  0  0  0  0
   28.9690   14.1310    5.4670 C   0  0  0  0  0  0  0  0  0  0  0  0
   29.3380   13.8420    4.1330 C   0  0  0  0  0  0  0  0  0  0  0  0
   28.3680   14.1220    3.2590 N   0  0  0  0  0  0  0  0  0  0  0  0
   27.3750   14.5970    4.0320 N   0  0  0  0  0  0  0  0  0  0  0  0
   27.6740   14.6240    5.3710 C   0  0  0  0  0  0  0  0  0  0  0  0
   26.9260   15.0310    6.4840 C   0  0  0  0  0  0  0  0  0  0  0  0
   27.5220   14.9330    7.7550 C   0  0  0  0  0  0  0  0  0  0  0  0
   26.7670   15.3580    8.9490 C   0  0  0  0  0  0  0  0  0  0  0  0
   25.5070   14.7750    9.2370 C   0  0  0  0  0  0  0  0  0  0  0  0
   24.7520   15.1750   10.3430 C   0  0  0  0  0  0  0  0  0  0  0  0
   25.2790   16.1680   11.1430 C   0  0  0  0  0  0  0  0  0  0  0  0
   26.5140   16.7610   10.8920 C   0  0  0  0  0  0  0  0  0  0  0  0
   27.2710   16.3620    9.8030 C   0  0  0  0  0  0  0  0  0  0  0  0
   26.8020   17.8020   11.9250 C   0  0  0  0  0  0  0  0  0  0  0  0
   25.6040   17.7580   12.7540 N   0  0  0  0  0  0  0  0  0  0  0  0
   25.4530   18.4830   14.0130 C   0  0  1  0  0  0  0  0  0  0  0  0
   26.3400   17.8800   15.1020 C   0  0  0  0  0  0  0  0  0  0  0  0
   26.0790   18.5840   16.4240 C   0  0  0  0  0  0  0  0  0  0  0  0
   26.2920   20.0730   16.3020 C   0  0  0  0  0  0  0  0  0  0  0  0
   26.6950   20.7590   17.2360 O   0  0  0  0  0  0  0  0  0  0  0  0
   25.9790   20.6400   15.0920 N   0  0  0  0  0  0  0  0  0  0  0  0
   25.7160   19.9930   13.9060 C   0  0  0  0  0  0  0  0  0  0  0  0
   25.6640   20.6290   12.8560 O   0  0  0  0  0  0  0  0  0  0  0  0
   24.7110   16.7810   12.3480 C   0  0  0  0  0  0  0  0  0  0  0  0
   23.6680   16.4520   12.8750 O   0  0  0  0  0  0  0  0  0  0  0  0
   28.9550   10.9730    7.8610 C   0  0  0  0  0  0  0  0  0  0  0  0
   27.8810   10.5440    7.2320 N   0  0  0  0  0  0  0  0  0  0  0  0
   24.8498    9.5653    8.8806 H   0  0  0  0  0  0  0  0  0  0  0  0
   23.8505    9.4962    7.3895 H   0  0  0  0  0  0  0  0  0  0  0  0
   25.5122    8.8140    7.3895 H   0  0  0  0  0  0  0  0  0  0  0  0
   25.4193   11.0117    6.2500 H   0  0  0  0  0  0  0  0  0  0  0  0
   24.7870   11.7462    7.7876 H   0  0  0  0  0  0  0  0  0  0  0  0
   26.6622   12.6658    9.4942 H   0  0  0  0  0  0  0  0  0  0  0  0
   30.5974   13.6371    6.8353 H   0  0  0  0  0  0  0  0  0  0  0  0
   30.3174   13.4313    3.8464 H   0  0  0  0  0  0  0  0  0  0  0  0
   26.4708   14.9124    3.6527 H   0  0  0  0  0  0  0  0  0  0  0  0
   25.9022   15.4161    6.3674 H   0  0  0  0  0  0  0  0  0  0  0  0
   25.1146   13.9895    8.5744 H   0  0  0  0  0  0  0  0  0  0  0  0
   23.7773   14.7168   10.5666 H   0  0  0  0  0  0  0  0  0  0  0  0
   28.2511   16.8212    9.6066 H   0  0  0  0  0  0  0  0  0  0  0  0
   27.6993   17.5470   12.5080 H   0  0  0  0  0  0  0  0  0  0  0  0
   27.0084   18.7963   11.5022 H   0  0  0  0  0  0  0  0  0  0  0  0
   24.3932   18.3690   14.2847 H   0  0  0  0  0  0  0  0  0  0  0  0
   26.1128   16.8089   15.2071 H   0  0  0  0  0  0  0  0  0  0  0  0
   27.3964   18.0081   14.8236 H   0  0  0  0  0  0  0  0  0  0  0  0
   25.0402   18.3944   16.7323 H   0  0  0  0  0  0  0  0  0  0  0  0
   26.7839   18.1919   17.1720 H   0  0  0  0  0  0  0  0  0  0  0  0
   25.9359   21.6688   15.0688 H   0  0  0  0  0  0  0  0  0  0  0  0
   29.9858   10.6822    7.6102 H   0  0  0  0  0  0  0  0  0  0  0  0
  1  2  1  0
  2  3  1  0
  3  4  2  0
  4  5  1  0
  5  6  1  0
  6  7  2  0
  6  8  2  0
  6  9  1  0
  9 10  1  0
 10 11  2  0
 11 12  1  0
 12 13  1  0
 13 14  2  0
 14 15  1  0
 15 16  1  0
 16 17  1  0
 17 18  2  0
 18 19  1  0
 19 20  2  0
 20 21  1  0
 21 22  2  0
 22 23  1  0
 23 24  2  0
 23 25  1  0
 25 26  1  0
 26 27  1  0
 27 28  1  0
 28 29  1  0
 29 30  1  0
 30 31  2  0
 30 32  1  0
 32 33  1  0
 33 34  2  0
 26 35  1  0
 35 36  2  0
  5 37  1  0
 37 38  2  0
 38  3  1  0
 18 10  1  0
 24 19  1  0
 33 27  1  0
 16 12  2  0
 35 22  1  0
  1 39  1  0
  1 40  1  0
  1 41  1  0
  2 42  1  0
  2 43  1  0
  4 44  1  0
 11 45  1  0
 13 46  1  0
 15 47  1  0
 17 48  1  0
 20 49  1  0
 21 50  1  0
 24 51  1  0
 25 52  1  0
 25 53  1  0
 27 54  1  1
 28 55  1  0
 28 56  1  0
 29 57  1  0
 29 58  1  0
 32 59  1  0
 37 60  1  0
M  END
>  <meeko>  (284) 
{"is_sidechain": [true], "free_energy": -13.37, "intermolecular_energy": 0.0, "internal_energy": -13.37, "cluster_size": 11, "cluster_id": 1, "rank_in_cluster": 1}

>  <_RMSD_MCS_to_ref>  (284) 
1.1878279824071638

$$$$
ligand
     RDKit          3D

 55 59  0  0  0  0  0  0  0  0999 V2000
   24.8540    9.4020    7.6050 C   0  0  0  0  0  0  0  0  0  0  0  0
   25.5230   10.7550    7.4270 C   0  0  0  0  0  0  0  0  0  0  0  0
   25.2080   11.3690    6.1080 C   0  0  0  0  0  0  0  0  0  0  0  0
   24.6630   12.6080    5.8360 C   0  0  0  0  0  0  0  0  0  0  0  0
   24.5940   12.6480    4.4720 N   0  0  0  0  0  0  0  0  0  0  0  0
   23.9640   13.9180    3.5590 S   0  0  0  0  0  6  0  0  0  0  0  0
   22.5260   13.8870    3.7550 O   0  0  0  0  0  0  0  0  0  0  0  0
   24.5290   13.6970    2.2380 O   0  0  0  0  0  0  0  0  0  0  0  0
   24.5680   15.3260    4.1080 O   0  0  0  0  0  0  0  0  0  0  0  0
   25.3770   15.3480    5.2180 C   0  0  0  0  0  0  0  0  0  0  0  0
   24.7760   15.6560    6.4170 C   0  0  0  0  0  0  0  0  0  0  0  0
   25.6050   15.7150    7.5200 C   0  0  0  0  0  0  0  0  0  0  0  0
   25.1170   16.0270    8.8820 C   0  0  0  0  0  0  0  0  0  0  0  0
   23.9330   15.4390    9.4040 C   0  0  0  0  0  0  0  0  0  0  0  0
   23.4710   15.7260   10.6940 C   0  0  0  0  0  0  0  0  0  0  0  0
   24.2050   16.6180   11.4470 C   0  0  0  0  0  0  0  0  0  0  0  0
   25.3640   17.2200   10.9740 C   0  0  0  0  0  0  0  0  0  0  0  0
   25.8280   16.9350    9.7000 C   0  0  0  0  0  0  0  0  0  0  0  0
   25.9400   18.1100   12.0220 C   0  0  0  0  0  0  0  0  0  0  0  0
   24.9420   18.0420   13.0830 N   0  0  0  0  0  0  0  0  0  0  0  0
   25.2050   18.6000   14.4060 C   0  0  1  0  0  0  0  0  0  0  0  0
   26.3190   17.8810   15.1660 C   0  0  0  0  0  0  0  0  0  0  0  0
   26.4660   18.5000   16.5470 C   0  0  0  0  0  0  0  0  0  0  0  0
   26.7340   19.9840   16.4560 C   0  0  0  0  0  0  0  0  0  0  0  0
   27.2900   20.6050   17.3580 O   0  0  0  0  0  0  0  0  0  0  0  0
   26.2500   20.6310   15.3470 N   0  0  0  0  0  0  0  0  0  0  0  0
   25.4930   20.1070   14.3240 C   0  0  0  0  0  0  0  0  0  0  0  0
   25.0030   20.8480   13.4720 O   0  0  0  0  0  0  0  0  0  0  0  0
   23.9640   17.0980   12.8120 C   0  0  0  0  0  0  0  0  0  0  0  0
   23.0730   16.6990   13.5360 O   0  0  0  0  0  0  0  0  0  0  0  0
   26.9330   15.4820    7.4150 N   0  0  0  0  0  0  0  0  0  0  0  0
   27.4110   15.2060    6.1950 C   0  0  0  0  0  0  0  0  0  0  0  0
   26.6880   15.1340    5.0710 N   0  0  0  0  0  0  0  0  0  0  0  0
   25.0730   11.4840    3.9640 C   0  0  0  0  0  0  0  0  0  0  0  0
   25.4560   10.6810    4.9360 N   0  0  0  0  0  0  0  0  0  0  0  0
   24.7464    9.1845    8.6779 H   0  0  0  0  0  0  0  0  0  0  0  0
   23.8606    9.4192    7.1330 H   0  0  0  0  0  0  0  0  0  0  0  0
   25.4708    8.6230    7.1330 H   0  0  0  0  0  0  0  0  0  0  0  0
   25.1758   11.4294    8.2236 H   0  0  0  0  0  0  0  0  0  0  0  0
   26.6113   10.6028    7.4773 H   0  0  0  0  0  0  0  0  0  0  0  0
   24.3553   13.3840    6.5523 H   0  0  0  0  0  0  0  0  0  0  0  0
   23.6950   15.8448    6.4927 H   0  0  0  0  0  0  0  0  0  0  0  0
   23.3632   14.7381    8.7762 H   0  0  0  0  0  0  0  0  0  0  0  0
   22.5582   15.2582   11.0914 H   0  0  0  0  0  0  0  0  0  0  0  0
   26.7456   17.4131    9.3265 H   0  0  0  0  0  0  0  0  0  0  0  0
   26.9143   17.7354   12.3691 H   0  0  0  0  0  0  0  0  0  0  0  0
   26.1325   19.1336   11.6683 H   0  0  0  0  0  0  0  0  0  0  0  0
   24.2834   18.4397   14.9848 H   0  0  0  0  0  0  0  0  0  0  0  0
   26.0667   16.8150   15.2661 H   0  0  0  0  0  0  0  0  0  0  0  0
   27.2655   17.9815   14.6146 H   0  0  0  0  0  0  0  0  0  0  0  0
   25.5373   18.3374   17.1136 H   0  0  0  0  0  0  0  0  0  0  0  0
   27.3183   18.0230   17.0531 H   0  0  0  0  0  0  0  0  0  0  0  0
   26.4817   21.6317   15.2708 H   0  0  0  0  0  0  0  0  0  0  0  0
   28.4922   15.0224    6.1091 H   0  0  0  0  0  0  0  0  0  0  0  0
   25.1330   11.2448    2.8920 H   0  0  0  0  0  0  0  0  0  0  0  0
  1  2  1  0
  2  3  1  0
  3  4  2  0
  4  5  1  0
  5  6  1  0
  6  7  2  0
  6  8  2  0
  6  9  1  0
  9 10  1  0
 10 11  2  0
 11 12  1  0
 12 13  1  0
 13 14  2  0
 14 15  1  0
 15 16  2  0
 16 17  1  0
 17 18  2  0
 17 19  1  0
 19 20  1  0
 20 21  1  0
 21 22  1  0
 22 23  1  0
 23 24  1  0
 24 25  2  0
 24 26  1  0
 26 27  1  0
 27 28  2  0
 20 29  1  0
 29 30  2  0
 12 31  2  0
 31 32  1  0
 32 33  2  0
  5 34  1  0
 34 35  2  0
 35  3  1  0
 33 10  1  0
 18 13  1  0
 27 21  1  0
 29 16  1  0
  1 36  1  0
  1 37  1  0
  1 38  1  0
  2 39  1  0
  2 40  1  0
  4 41  1  0
 11 42  1  0
 14 43  1  0
 15 44  1  0
 18 45  1  0
 19 46  1  0
 19 47  1  0
 21 48  1  1
 22 49  1  0
 22 50  1  0
 23 51  1  0
 23 52  1  0
 26 53  1  0
 32 54  1  0
 34 55  1  0
M  END
>  <meeko>  (285) 
{"is_sidechain": [true], "free_energy": -13.35, "intermolecular_energy": 0.0, "internal_energy": -13.35, "cluster_size": 19, "cluster_id": 1, "rank_in_cluster": 1}

>  <_RMSD_MCS_to_ref>  (285) 
0.4455291485663104

$$$$
ligand
     RDKit          3D

 61 66  0  0  0  0  0  0  0  0999 V2000
   24.8540    9.4020    7.6050 C   0  0  0  0  0  0  0  0  0  0  0  0
   25.5230   10.7550    7.4270 C   0  0  0  0  0  0  0  0  0  0  0  0
   25.2720   11.3340    6.0800 C   0  0  0  0  0  0  0  0  0  0  0  0
   26.0960   12.1350    5.3120 C   0  0  0  0  0  0  0  0  0  0  0  0
   25.3750   12.3580    4.1740 N   0  0  0  0  0  0  0  0  0  0  0  0
   25.8400   13.3520    2.8970 S   0  0  0  0  0  6  0  0  0  0  0  0
   26.9580   12.6850    2.2520 O   0  0  0  0  0  0  0  0  0  0  0  0
   24.6030   13.5790    2.1710 O   0  0  0  0  0  0  0  0  0  0  0  0
   26.3120   14.7940    3.5130 O   0  0  0  0  0  0  0  0  0  0  0  0
   26.1030   15.0470    4.8440 C   0  0  0  0  0  0  0  0  0  0  0  0
   24.8320   15.4030    5.2500 C   0  0  0  0  0  0  0  0  0  0  0  0
   24.5070   15.6630    6.5290 N   0  0  0  0  0  0  0  0  0  0  0  0
   25.4950   15.5700    7.4560 C   0  0  0  0  0  0  0  0  0  0  0  0
   25.0520   15.9170    8.8180 C   0  0  0  0  0  0  0  0  0  0  0  0
   23.9190   15.2870    9.3970 C   0  0  0  0  0  0  0  0  0  0  0  0
   23.4900   15.6020   10.6890 C   0  0  0  0  0  0  0  0  0  0  0  0
   24.2170   16.5460   11.3860 C   0  0  0  0  0  0  0  0  0  0  0  0
   25.3450   17.1690   10.8560 C   0  0  0  0  0  0  0  0  0  0  0  0
   25.7740   16.8610    9.5750 C   0  0  0  0  0  0  0  0  0  0  0  0
   25.9270   18.1150   11.8540 C   0  0  0  0  0  0  0  0  0  0  0  0
   24.9980   18.0000   12.9730 N   0  0  0  0  0  0  0  0  0  0  0  0
   25.2350   18.5810   14.2920 C   0  0  1  0  0  0  0  0  0  0  0  0
   26.4300   17.9150   14.9730 C   0  0  0  0  0  0  0  0  0  0  0  0
   26.5770   18.4450   16.3900 C   0  0  0  0  0  0  0  0  0  0  0  0
   26.7020   19.9480   16.4010 C   0  0  0  0  0  0  0  0  0  0  0  0
   27.3630   20.5480   17.2420 O   0  0  0  0  0  0  0  0  0  0  0  0
   26.0050   20.6290   15.4340 N   0  0  0  0  0  0  0  0  0  0  0  0
   25.4240   20.1070   14.3020 C   0  0  0  0  0  0  0  0  0  0  0  0
   25.0680   20.8560   13.3940 O   0  0  0  0  0  0  0  0  0  0  0  0
   24.0140   17.0520   12.7470 C   0  0  0  0  0  0  0  0  0  0  0  0
   23.1560   16.6670   13.5170 O   0  0  0  0  0  0  0  0  0  0  0  0
   26.8150   15.1700    7.1380 C   0  0  0  0  0  0  0  0  0  0  0  0
   27.8660   14.9960    8.0690 C   0  0  0  0  0  0  0  0  0  0  0  0
   29.1270   14.5900    7.6480 C   0  0  0  0  0  0  0  0  0  0  0  0
   29.3110   14.3590    6.3030 C   0  0  0  0  0  0  0  0  0  0  0  0
   28.3320   14.5030    5.3820 N   0  0  0  0  0  0  0  0  0  0  0  0
   27.1100   14.9030    5.7870 C   0  0  0  0  0  0  0  0  0  0  0  0
   24.1590   11.7670    4.2900 C   0  0  0  0  0  0  0  0  0  0  0  0
   24.0720   11.1100    5.4300 N   0  0  0  0  0  0  0  0  0  0  0  0
   24.7464    9.1845    8.6779 H   0  0  0  0  0  0  0  0  0  0  0  0
   23.8606    9.4192    7.1330 H   0  0  0  0  0  0  0  0  0  0  0  0
   25.4708    8.6230    7.1330 H   0  0  0  0  0  0  0  0  0  0  0  0
   25.1319   11.4463    8.1880 H   0  0  0  0  0  0  0  0  0  0  0  0
   26.6082   10.6116    7.5357 H   0  0  0  0  0  0  0  0  0  0  0  0
   27.1009   12.5071    5.5603 H   0  0  0  0  0  0  0  0  0  0  0  0
   24.0434   15.4779    4.4868 H   0  0  0  0  0  0  0  0  0  0  0  0
   23.3666   14.5342    8.8155 H   0  0  0  0  0  0  0  0  0  0  0  0
   22.6081   15.1171   11.1330 H   0  0  0  0  0  0  0  0  0  0  0  0
   26.6666   17.3471    9.1544 H   0  0  0  0  0  0  0  0  0  0  0  0
   26.9424   17.8097   12.1467 H   0  0  0  0  0  0  0  0  0  0  0  0
   26.0343   19.1422   11.4755 H   0  0  0  0  0  0  0  0  0  0  0  0
   24.3101   18.3832   14.8536 H   0  0  0  0  0  0  0  0  0  0  0  0
   26.2723   16.8268   15.0048 H   0  0  0  0  0  0  0  0  0  0  0  0
   27.3441   18.1409   14.4043 H   0  0  0  0  0  0  0  0  0  0  0  0
   25.6920   18.1545   16.9752 H   0  0  0  0  0  0  0  0  0  0  0  0
   27.4904   18.0167   16.8286 H   0  0  0  0  0  0  0  0  0  0  0  0
   25.9061   21.6449   15.5717 H   0  0  0  0  0  0  0  0  0  0  0  0
   27.6833   15.1840    9.1373 H   0  0  0  0  0  0  0  0  0  0  0  0
   29.9504   14.4577    8.3653 H   0  0  0  0  0  0  0  0  0  0  0  0
   30.3066   14.0407    5.9601 H   0  0  0  0  0  0  0  0  0  0  0  0
   23.3581   11.8275    3.5384 H   0  0  0  0  0  0  0  0  0  0  0  0
  1  2  1  0
  2  3  1  0
  3  4  2  0
  4  5  1  0
  5  6  1  0
  6  7  2  0
  6  8  2  0
  6  9  1  0
  9 10  1  0
 10 11  2  0
 11 12  1  0
 12 13  2  0
 13 14  1  0
 14 15  2  0
 15 16  1  0
 16 17  2  0
 17 18  1  0
 18 19  2  0
 18 20  1  0
 20 21  1  0
 21 22  1  0
 22 23  1  0
 23 24  1  0
 24 25  1  0
 25 26  2  0
 25 27  1  0
 27 28  1  0
 28 29  2  0
 21 30  1  0
 30 31  2  0
 13 32  1  0
 32 33  2  0
 33 34  1  0
 34 35  2  0
 35 36  1  0
 36 37  2  0
  5 38  1  0
 38 39  2  0
 39  3  1  0
 37 10  1  0
 19 14  1  0
 28 22  1  0
 37 32  1  0
 30 17  1  0
  1 40  1  0
  1 41  1  0
  1 42  1  0
  2 43  1  0
  2 44  1  0
  4 45  1  0
 11 46  1  0
 15 47  1  0
 16 48  1  0
 19 49  1  0
 20 50  1  0
 20 51  1  0
 22 52  1  1
 23 53  1  0
 23 54  1  0
 24 55  1  0
 24 56  1  0
 27 57  1  0
 33 58  1  0
 34 59  1  0
 35 60  1  0
 38 61  1  0
M  END
>  <meeko>  (286) 
{"is_sidechain": [true], "free_energy": -13.34, "intermolecular_energy": 0.0, "internal_energy": -13.34, "cluster_size": 19, "cluster_id": 1, "rank_in_cluster": 1}

>  <_RMSD_MCS_to_ref>  (286) 
0.5156345605174265

$$$$
ligand
     RDKit          3D

 55 59  0  0  0  0  0  0  0  0999 V2000
   24.8540    9.4020    7.6050 C   0  0  0  0  0  0  0  0  0  0  0  0
   25.5230   10.7550    7.4270 C   0  0  0  0  0  0  0  0  0  0  0  0
   25.1530   11.3970    6.1370 C   0  0  0  0  0  0  0  0  0  0  0  0
   24.3240   12.4800    5.9130 C   0  0  0  0  0  0  0  0  0  0  0  0
   24.2800   12.5840    4.5520 N   0  0  0  0  0  0  0  0  0  0  0  0
   23.4820   13.7800    3.6730 S   0  0  0  0  0  6  0  0  0  0  0  0
   22.0640   13.5410    3.8800 O   0  0  0  0  0  0  0  0  0  0  0  0
   24.0600   13.6660    2.3450 O   0  0  0  0  0  0  0  0  0  0  0  0
   23.8720   15.2490    4.2500 O   0  0  0  0  0  0  0  0  0  0  0  0
   24.8230   15.3550    5.2280 C   0  0  0  0  0  0  0  0  0  0  0  0
   26.1300   15.0260    4.9170 C   0  0  0  0  0  0  0  0  0  0  0  0
   27.1130   15.0240    5.8450 N   0  0  0  0  0  0  0  0  0  0  0  0
   26.7220   15.3490    7.1040 C   0  0  0  0  0  0  0  0  0  0  0  0
   25.4050   15.6630    7.4370 C   0  0  0  0  0  0  0  0  0  0  0  0
   24.9580   15.9660    8.8070 C   0  0  0  0  0  0  0  0  0  0  0  0
   23.7060   15.4840    9.2780 C   0  0  0  0  0  0  0  0  0  0  0  0
   23.2480   15.7200   10.5820 C   0  0  0  0  0  0  0  0  0  0  0  0
   24.0550   16.4490   11.4290 C   0  0  0  0  0  0  0  0  0  0  0  0
   25.2810   16.9260   10.9790 C   0  0  0  0  0  0  0  0  0  0  0  0
   25.7540   16.7100    9.6970 C   0  0  0  0  0  0  0  0  0  0  0  0
   25.9190   17.6510   12.0830 C   0  0  0  0  0  0  0  0  0  0  0  0
   26.9690   18.2580   11.9890 O   0  0  0  0  0  0  0  0  0  0  0  0
   25.0910   17.5140   13.1860 N   0  0  0  0  0  0  0  0  0  0  0  0
   25.2390   18.2710   14.4250 C   0  0  1  0  0  0  0  0  0  0  0  0
   26.3160   17.7180   15.3590 C   0  0  0  0  0  0  0  0  0  0  0  0
   26.3420   18.5400   16.6380 C   0  0  0  0  0  0  0  0  0  0  0  0
   26.5710   20.0040   16.3450 C   0  0  0  0  0  0  0  0  0  0  0  0
   27.0430   20.7720   17.1780 O   0  0  0  0  0  0  0  0  0  0  0  0
   26.1460   20.4620   15.1220 N   0  0  0  0  0  0  0  0  0  0  0  0
   25.4860   19.7610   14.1390 C   0  0  0  0  0  0  0  0  0  0  0  0
   25.0440   20.3450   13.1490 O   0  0  0  0  0  0  0  0  0  0  0  0
   23.8340   16.8610   12.8450 C   0  0  0  0  0  0  0  0  0  0  0  0
   24.4370   15.6740    6.4800 N   0  0  0  0  0  0  0  0  0  0  0  0
   25.1390   11.6850    4.0070 C   0  0  0  0  0  0  0  0  0  0  0  0
   25.6610   10.9190    4.9430 N   0  0  0  0  0  0  0  0  0  0  0  0
   24.7464    9.1845    8.6779 H   0  0  0  0  0  0  0  0  0  0  0  0
   23.8606    9.4192    7.1330 H   0  0  0  0  0  0  0  0  0  0  0  0
   25.4708    8.6230    7.1330 H   0  0  0  0  0  0  0  0  0  0  0  0
   25.2154   11.4141    8.2522 H   0  0  0  0  0  0  0  0  0  0  0  0
   26.6116   10.5971    7.4268 H   0  0  0  0  0  0  0  0  0  0  0  0
   23.8174   13.1114    6.6578 H   0  0  0  0  0  0  0  0  0  0  0  0
   26.3779   14.7569    3.8796 H   0  0  0  0  0  0  0  0  0  0  0  0
   27.4811   15.3654    7.8999 H   0  0  0  0  0  0  0  0  0  0  0  0
   23.0717   14.9030    8.5923 H   0  0  0  0  0  0  0  0  0  0  0  0
   22.2742   15.3351   10.9189 H   0  0  0  0  0  0  0  0  0  0  0  0
   26.7287   17.1102    9.3812 H   0  0  0  0  0  0  0  0  0  0  0  0
   24.2823   18.1595   14.9564 H   0  0  0  0  0  0  0  0  0  0  0  0
   26.0895   16.6691   15.6008 H   0  0  0  0  0  0  0  0  0  0  0  0
   27.2970   17.7744   14.8646 H   0  0  0  0  0  0  0  0  0  0  0  0
   25.3793   18.4249   17.1576 H   0  0  0  0  0  0  0  0  0  0  0  0
   27.1691   18.1782   17.2665 H   0  0  0  0  0  0  0  0  0  0  0  0
   26.3457   21.4511   14.9154 H   0  0  0  0  0  0  0  0  0  0  0  0
   23.6527   15.9878   13.4889 H   0  0  0  0  0  0  0  0  0  0  0  0
   22.9544   17.5075   12.9803 H   0  0  0  0  0  0  0  0  0  0  0  0
   25.3672   11.6071    2.9338 H   0  0  0  0  0  0  0  0  0  0  0  0
  1  2  1  0
  2  3  1  0
  3  4  2  0
  4  5  1  0
  5  6  1  0
  6  7  2  0
  6  8  2  0
  6  9  1  0
  9 10  1  0
 10 11  2  0
 11 12  1  0
 12 13  2  0
 13 14  1  0
 14 15  1  0
 15 16  2  0
 16 17  1  0
 17 18  2  0
 18 19  1  0
 19 20  2  0
 19 21  1  0
 21 22  2  0
 21 23  1  0
 23 24  1  0
 24 25  1  0
 25 26  1  0
 26 27  1  0
 27 28  2  0
 27 29  1  0
 29 30  1  0
 30 31  2  0
 23 32  1  0
 14 33  2  0
  5 34  1  0
 34 35  2  0
 35  3  1  0
 33 10  1  0
 20 15  1  0
 30 24  1  0
 32 18  1  0
  1 36  1  0
  1 37  1  0
  1 38  1  0
  2 39  1  0
  2 40  1  0
  4 41  1  0
 11 42  1  0
 13 43  1  0
 16 44  1  0
 17 45  1  0
 20 46  1  0
 24 47  1  1
 25 48  1  0
 25 49  1  0
 26 50  1  0
 26 51  1  0
 29 52  1  0
 32 53  1  0
 32 54  1  0
 34 55  1  0
M  END
>  <meeko>  (287) 
{"is_sidechain": [true], "free_energy": -13.32, "intermolecular_energy": 0.0, "internal_energy": -13.32, "cluster_size": 19, "cluster_id": 1, "rank_in_cluster": 1}

>  <_RMSD_MCS_to_ref>  (287) 
0.4877573394857548

$$$$
ligand
     RDKit          3D

 53 57  0  0  0  0  0  0  0  0999 V2000
   24.8540    9.4020    7.6050 C   0  0  0  0  0  0  0  0  0  0  0  0
   25.5230   10.7550    7.4270 C   0  0  0  0  0  0  0  0  0  0  0  0
   25.2400   11.3510    6.0930 C   0  0  0  0  0  0  0  0  0  0  0  0
   24.5880   12.5290    5.7880 C   0  0  0  0  0  0  0  0  0  0  0  0
   24.5820   12.5650    4.4230 N   0  0  0  0  0  0  0  0  0  0  0  0
   24.1190   13.8770    3.4730 S   0  0  0  0  0  6  0  0  0  0  0  0
   22.6950   14.0250    3.7130 O   0  0  0  0  0  0  0  0  0  0  0  0
   24.6320   13.5790    2.1490 O   0  0  0  0  0  0  0  0  0  0  0  0
   24.8990   15.1660    4.0720 O   0  0  0  0  0  0  0  0  0  0  0  0
   25.2290   15.2540    5.3720 C   0  0  0  0  0  0  0  0  0  0  0  0
   24.4380   15.6780    6.4780 C   0  0  0  0  0  0  0  0  0  0  0  0
   25.1700   15.6130    7.6530 C   0  0  0  0  0  0  0  0  0  0  0  0
   24.7900   15.9640    9.0240 C   0  0  0  0  0  0  0  0  0  0  0  0
   23.6560   15.3500    9.6100 C   0  0  0  0  0  0  0  0  0  0  0  0
   23.2630   15.6450   10.9190 C   0  0  0  0  0  0  0  0  0  0  0  0
   24.0260   16.5570   11.6200 C   0  0  0  0  0  0  0  0  0  0  0  0
   25.1490   17.1720   11.0750 C   0  0  0  0  0  0  0  0  0  0  0  0
   25.5470   16.8820    9.7790 C   0  0  0  0  0  0  0  0  0  0  0  0
   25.7740   18.0750   12.0850 C   0  0  0  0  0  0  0  0  0  0  0  0
   24.8380   18.0050   13.1990 N   0  0  0  0  0  0  0  0  0  0  0  0
   25.1690   18.5720   14.5030 C   0  0  1  0  0  0  0  0  0  0  0  0
   26.3120   17.8510   15.2160 C   0  0  0  0  0  0  0  0  0  0  0  0
   26.5310   18.4810   16.5820 C   0  0  0  0  0  0  0  0  0  0  0  0
   26.8050   19.9620   16.4650 C   0  0  0  0  0  0  0  0  0  0  0  0
   27.4040   20.5870   17.3370 O   0  0  0  0  0  0  0  0  0  0  0  0
   26.2780   20.6020   15.3730 N   0  0  0  0  0  0  0  0  0  0  0  0
   25.4650   20.0760   14.3950 C   0  0  0  0  0  0  0  0  0  0  0  0
   24.9360   20.8140   13.5640 O   0  0  0  0  0  0  0  0  0  0  0  0
   23.8570   17.0450   12.9920 C   0  0  0  0  0  0  0  0  0  0  0  0
   23.0160   16.6420   13.7700 O   0  0  0  0  0  0  0  0  0  0  0  0
   26.7460   15.0580    7.2560 S   0  0  0  0  0  0  0  0  0  0  0  0
   26.4780   14.8870    5.6310 N   0  0  0  0  0  0  0  0  0  0  0  0
   25.2750   11.4990    3.9470 C   0  0  0  0  0  0  0  0  0  0  0  0
   25.6650   10.7230    4.9380 N   0  0  0  0  0  0  0  0  0  0  0  0
   24.7464    9.1845    8.6779 H   0  0  0  0  0  0  0  0  0  0  0  0
   23.8606    9.4192    7.1330 H   0  0  0  0  0  0  0  0  0  0  0  0
   25.4708    8.6230    7.1330 H   0  0  0  0  0  0  0  0  0  0  0  0
   25.1533   11.4382    8.2058 H   0  0  0  0  0  0  0  0  0  0  0  0
   26.6101   10.6073    7.5071 H   0  0  0  0  0  0  0  0  0  0  0  0
   24.1690   13.2695    6.4853 H   0  0  0  0  0  0  0  0  0  0  0  0
   23.3918   16.0107    6.4091 H   0  0  0  0  0  0  0  0  0  0  0  0
   23.0722   14.6258    9.0229 H   0  0  0  0  0  0  0  0  0  0  0  0
   22.3808   15.1692   11.3722 H   0  0  0  0  0  0  0  0  0  0  0  0
   26.4386   17.3604    9.3474 H   0  0  0  0  0  0  0  0  0  0  0  0
   26.7695   17.7117   12.3798 H   0  0  0  0  0  0  0  0  0  0  0  0
   25.9367   19.0980   11.7149 H   0  0  0  0  0  0  0  0  0  0  0  0
   24.2744   18.4235   15.1256 H   0  0  0  0  0  0  0  0  0  0  0  0
   26.0560   16.7883   15.3386 H   0  0  0  0  0  0  0  0  0  0  0  0
   27.2316   17.9387   14.6188 H   0  0  0  0  0  0  0  0  0  0  0  0
   25.6300   18.3305   17.1948 H   0  0  0  0  0  0  0  0  0  0  0  0
   27.4038   18.0020   17.0497 H   0  0  0  0  0  0  0  0  0  0  0  0
   26.5201   21.5981   15.2723 H   0  0  0  0  0  0  0  0  0  0  0  0
   25.4819   11.3097    2.8834 H   0  0  0  0  0  0  0  0  0  0  0  0
  1  2  1  0
  2  3  1  0
  3  4  2  0
  4  5  1  0
  5  6  1  0
  6  7  2  0
  6  8  2  0
  6  9  1  0
  9 10  1  0
 10 11  1  0
 11 12  2  0
 12 13  1  0
 13 14  2  0
 14 15  1  0
 15 16  2  0
 16 17  1  0
 17 18  2  0
 17 19  1  0
 19 20  1  0
 20 21  1  0
 21 22  1  0
 22 23  1  0
 23 24  1  0
 24 25  2  0
 24 26  1  0
 26 27  1  0
 27 28  2  0
 20 29  1  0
 29 30  2  0
 12 31  1  0
 31 32  1  0
  5 33  1  0
 33 34  2  0
 34  3  1  0
 32 10  2  0
 18 13  1  0
 27 21  1  0
 29 16  1  0
  1 35  1  0
  1 36  1  0
  1 37  1  0
  2 38  1  0
  2 39  1  0
  4 40  1  0
 11 41  1  0
 14 42  1  0
 15 43  1  0
 18 44  1  0
 19 45  1  0
 19 46  1  0
 21 47  1  1
 22 48  1  0
 22 49  1  0
 23 50  1  0
 23 51  1  0
 26 52  1  0
 33 53  1  0
M  END
>  <meeko>  (288) 
{"is_sidechain": [true], "free_energy": -13.32, "intermolecular_energy": 0.0, "internal_energy": -13.32, "cluster_size": 17, "cluster_id": 1, "rank_in_cluster": 1}

>  <_RMSD_MCS_to_ref>  (288) 
0.3877623842853586

$$$$
ligand
     RDKit          3D

 60 64  0  0  0  0  0  0  0  0999 V2000
   24.8540    9.4020    7.6050 C   0  0  0  0  0  0  0  0  0  0  0  0
   25.5230   10.7550    7.4270 C   0  0  0  0  0  0  0  0  0  0  0  0
   24.8620   11.5760    6.3760 C   0  0  0  0  0  0  0  0  0  0  0  0
   25.3860   12.0590    5.1940 C   0  0  0  0  0  0  0  0  0  0  0  0
   24.3440   12.7210    4.6100 N   0  0  0  0  0  0  0  0  0  0  0  0
   24.4340   13.7060    3.2510 S   0  0  0  0  0  6  0  0  0  0  0  0
   25.3020   13.0240    2.3130 O   0  0  0  0  0  0  0  0  0  0  0  0
   23.0600   14.0490    2.9360 O   0  0  0  0  0  0  0  0  0  0  0  0
   25.2660   15.1580    3.8350 C   0  0  0  0  0  0  0  0  0  0  0  0
   26.0890   15.8820    2.9680 C   0  0  0  0  0  0  0  0  0  0  0  0
   26.7500   17.0180    3.4370 C   0  0  0  0  0  0  0  0  0  0  0  0
   26.5850   17.4310    4.7620 C   0  0  0  0  0  0  0  0  0  0  0  0
   25.7520   16.7070    5.6270 C   0  0  0  0  0  0  0  0  0  0  0  0
   25.5540   17.1050    7.0520 C   0  0  0  0  0  0  0  0  0  0  0  0
   25.9450   18.2140    7.3960 O   0  0  0  0  0  0  0  0  0  0  0  0
   24.9760   16.1410    7.8580 N   0  0  0  0  0  0  0  0  0  0  0  0
   24.6450   16.2560    9.2260 C   0  0  0  0  0  0  0  0  0  0  0  0
   23.5580   15.5900    9.8290 C   0  0  0  0  0  0  0  0  0  0  0  0
   23.2720   15.7390   11.1950 C   0  0  0  0  0  0  0  0  0  0  0  0
   24.0920   16.5510   11.9500 C   0  0  0  0  0  0  0  0  0  0  0  0
   25.1670   17.1980   11.3520 C   0  0  0  0  0  0  0  0  0  0  0  0
   25.4670   17.0760   10.0070 C   0  0  0  0  0  0  0  0  0  0  0  0
   25.8560   17.9860   12.3780 C   0  0  0  0  0  0  0  0  0  0  0  0
   26.7930   18.7280   12.1610 O   0  0  0  0  0  0  0  0  0  0  0  0
   25.2190   17.7200   13.5820 N   0  0  0  0  0  0  0  0  0  0  0  0
   25.4440   18.4680   14.8140 C   0  0  1  0  0  0  0  0  0  0  0  0
   26.5780   17.9120   15.6750 C   0  0  0  0  0  0  0  0  0  0  0  0
   26.6840   18.7240   16.9560 C   0  0  0  0  0  0  0  0  0  0  0  0
   26.8910   20.1900   16.6590 C   0  0  0  0  0  0  0  0  0  0  0  0
   27.4140   20.9540   17.4660 O   0  0  0  0  0  0  0  0  0  0  0  0
   26.3910   20.6560   15.4690 N   0  0  0  0  0  0  0  0  0  0  0  0
   25.6690   19.9610   14.5250 C   0  0  0  0  0  0  0  0  0  0  0  0
   25.1620   20.5520   13.5730 O   0  0  0  0  0  0  0  0  0  0  0  0
   24.0220   16.9120   13.3960 C   0  0  0  0  0  0  0  0  0  0  0  0
   25.1060   15.5530    5.1660 C   0  0  0  0  0  0  0  0  0  0  0  0
   23.2670   12.6680    5.4340 C   0  0  0  0  0  0  0  0  0  0  0  0
   23.5460   11.9720    6.5170 N   0  0  0  0  0  0  0  0  0  0  0  0
   24.7464    9.1845    8.6779 H   0  0  0  0  0  0  0  0  0  0  0  0
   23.8606    9.4192    7.1330 H   0  0  0  0  0  0  0  0  0  0  0  0
   25.4708    8.6230    7.1330 H   0  0  0  0  0  0  0  0  0  0  0  0
   25.4794   11.2999    8.3816 H   0  0  0  0  0  0  0  0  0  0  0  0
   26.5625   10.5787    7.1133 H   0  0  0  0  0  0  0  0  0  0  0  0
   26.4097   11.9382    4.8099 H   0  0  0  0  0  0  0  0  0  0  0  0
   26.2147   15.5589    1.9241 H   0  0  0  0  0  0  0  0  0  0  0  0
   27.4030   17.5903    2.7617 H   0  0  0  0  0  0  0  0  0  0  0  0
   27.1098   18.3261    5.1271 H   0  0  0  0  0  0  0  0  0  0  0  0
   24.7632   15.2381    7.4103 H   0  0  0  0  0  0  0  0  0  0  0  0
   22.9194   14.9385    9.2144 H   0  0  0  0  0  0  0  0  0  0  0  0
   22.4156   15.2213   11.6517 H   0  0  0  0  0  0  0  0  0  0  0  0
   26.3238   17.6063    9.5659 H   0  0  0  0  0  0  0  0  0  0  0  0
   24.5226   18.3491   15.4030 H   0  0  0  0  0  0  0  0  0  0  0  0
   26.3691   16.8609   15.9230 H   0  0  0  0  0  0  0  0  0  0  0  0
   27.5257   17.9755   15.1202 H   0  0  0  0  0  0  0  0  0  0  0  0
   25.7567   18.6029   17.5351 H   0  0  0  0  0  0  0  0  0  0  0  0
   27.5498   18.3594   17.5283 H   0  0  0  0  0  0  0  0  0  0  0  0
   26.5787   21.6461   15.2562 H   0  0  0  0  0  0  0  0  0  0  0  0
   24.0469   16.0140   14.0308 H   0  0  0  0  0  0  0  0  0  0  0  0
   23.0945   17.4357   13.6710 H   0  0  0  0  0  0  0  0  0  0  0  0
   24.4767   14.9613    5.8472 H   0  0  0  0  0  0  0  0  0  0  0  0
   22.2957   13.1407    5.2263 H   0  0  0  0  0  0  0  0  0  0  0  0
  1  2  1  0
  2  3  1  0
  3  4  2  0
  4  5  1  0
  5  6  1  0
  6  7  2  0
  6  8  2  0
  6  9  1  0
  9 10  2  0
 10 11  1  0
 11 12  2  0
 12 13  1  0
 13 14  1  0
 14 15  2  0
 14 16  1  0
 16 17  1  0
 17 18  2  0
 18 19  1  0
 19 20  2  0
 20 21  1  0
 21 22  2  0
 21 23  1  0
 23 24  2  0
 23 25  1  0
 25 26  1  0
 26 27  1  0
 27 28  1  0
 28 29  1  0
 29 30  2  0
 29 31  1  0
 31 32  1  0
 32 33  2  0
 25 34  1  0
 13 35  2  0
  5 36  1  0
 36 37  2  0
 37  3  1  0
 35  9  1  0
 22 17  1  0
 32 26  1  0
 34 20  1  0
  1 38  1  0
  1 39  1  0
  1 40  1  0
  2 41  1  0
  2 42  1  0
  4 43  1  0
 10 44  1  0
 11 45  1  0
 12 46  1  0
 16 47  1  0
 18 48  1  0
 19 49  1  0
 22 50  1  0
 26 51  1  1
 27 52  1  0
 27 53  1  0
 28 54  1  0
 28 55  1  0
 31 56  1  0
 34 57  1  0
 34 58  1  0
 35 59  1  0
 36 60  1  0
M  END
>  <meeko>  (289) 
{"is_sidechain": [true], "free_energy": -13.32, "intermolecular_energy": 0.0, "internal_energy": -13.32, "cluster_size": 20, "cluster_id": 1, "rank_in_cluster": 1}

>  <_RMSD_MCS_to_ref>  (289) 
0.5510432151837084

$$$$
ligand
     RDKit          3D

 60 65  0  0  0  0  0  0  0  0999 V2000
   24.8710    9.6160    7.7820 C   0  0  0  0  0  0  0  0  0  0  0  0
   25.4240   10.9650    7.3490 C   0  0  0  0  0  0  0  0  0  0  0  0
   26.9060   10.9490    7.2140 C   0  0  0  0  0  0  0  0  0  0  0  0
   27.8590   11.5460    8.0160 C   0  0  0  0  0  0  0  0  0  0  0  0
   29.0470   11.1850    7.4490 N   0  0  0  0  0  0  0  0  0  0  0  0
   30.5580   11.8100    7.8500 S   0  0  0  0  0  6  0  0  0  0  0  0
   31.5170   10.8190    7.3940 O   0  0  0  0  0  0  0  0  0  0  0  0
   30.4600   12.1720    9.2500 O   0  0  0  0  0  0  0  0  0  0  0  0
   30.7440   13.1740    6.9680 O   0  0  0  0  0  0  0  0  0  0  0  0
   29.8230   13.6250    6.1110 C   0  0  0  0  0  0  0  0  0  0  0  0
   29.9000   13.5100    4.7420 N   0  0  0  0  0  0  0  0  0  0  0  0
   28.8530   14.0320    4.0750 N   0  0  0  0  0  0  0  0  0  0  0  0
   28.0350   14.4980    5.0310 C   0  0  0  0  0  0  0  0  0  0  0  0
   26.7910   15.1360    4.9210 C   0  0  0  0  0  0  0  0  0  0  0  0
   26.2190   15.4860    6.1670 C   0  0  0  0  0  0  0  0  0  0  0  0
   26.8290   15.2300    7.4490 C   0  0  0  0  0  0  0  0  0  0  0  0
   26.1240   15.6500    8.6750 C   0  0  0  0  0  0  0  0  0  0  0  0
   24.8530   15.1100    8.9920 C   0  0  0  0  0  0  0  0  0  0  0  0
   24.1680   15.4880   10.1510 C   0  0  0  0  0  0  0  0  0  0  0  0
   24.7780   16.4130   10.9740 C   0  0  0  0  0  0  0  0  0  0  0  0
   26.0250   16.9640   10.6910 C   0  0  0  0  0  0  0  0  0  0  0  0
   26.7110   16.5910    9.5480 C   0  0  0  0  0  0  0  0  0  0  0  0
   26.4200   17.9140   11.7720 C   0  0  0  0  0  0  0  0  0  0  0  0
   25.2480   17.9160   12.6390 N   0  0  0  0  0  0  0  0  0  0  0  0
   25.2340   18.5040   13.9720 C   0  0  2  0  0  0  0  0  0  0  0  0
   26.2000   19.6780   14.1030 C   0  0  0  0  0  0  0  0  0  0  0  0
   26.0620   20.2920   15.4880 C   0  0  0  0  0  0  0  0  0  0  0  0
   26.2800   19.2580   16.5670 C   0  0  0  0  0  0  0  0  0  0  0  0
   26.8450   19.5200   17.6250 O   0  0  0  0  0  0  0  0  0  0  0  0
   25.7980   17.9990   16.3160 N   0  0  0  0  0  0  0  0  0  0  0  0
   25.5540   17.4720   15.0670 C   0  0  0  0  0  0  0  0  0  0  0  0
   25.6120   16.2570   14.8860 O   0  0  0  0  0  0  0  0  0  0  0  0
   24.3020   16.9830   12.2380 C   0  0  0  0  0  0  0  0  0  0  0  0
   23.2690   16.6740   12.8010 O   0  0  0  0  0  0  0  0  0  0  0  0
   28.0880   14.5860    7.5630 C   0  0  0  0  0  0  0  0  0  0  0  0
   28.6230   14.2520    6.3220 C   0  0  0  0  0  0  0  0  0  0  0  0
   28.8030   10.4770    6.3170 C   0  0  0  0  0  0  0  0  0  0  0  0
   27.5090   10.2920    6.1590 N   0  0  0  0  0  0  0  0  0  0  0  0
   24.8497    9.5640    8.8806 H   0  0  0  0  0  0  0  0  0  0  0  0
   23.8507    9.4948    7.3893 H   0  0  0  0  0  0  0  0  0  0  0  0
   25.5127    8.8135    7.3893 H   0  0  0  0  0  0  0  0  0  0  0  0
   24.9829   11.2332    6.3777 H   0  0  0  0  0  0  0  0  0  0  0  0
   25.1639   11.7007    8.1243 H   0  0  0  0  0  0  0  0  0  0  0  0
   27.6975   12.1697    8.9076 H   0  0  0  0  0  0  0  0  0  0  0  0
   30.6949   13.0606    4.2655 H   0  0  0  0  0  0  0  0  0  0  0  0
   26.3053   15.3448    3.9564 H   0  0  0  0  0  0  0  0  0  0  0  0
   25.2406   15.9885    6.1574 H   0  0  0  0  0  0  0  0  0  0  0  0
   24.3950   14.3772    8.3114 H   0  0  0  0  0  0  0  0  0  0  0  0
   23.1827   15.0652   10.3969 H   0  0  0  0  0  0  0  0  0  0  0  0
   27.6982   17.0212    9.3236 H   0  0  0  0  0  0  0  0  0  0  0  0
   27.3105   17.5558   12.3093 H   0  0  0  0  0  0  0  0  0  0  0  0
   26.6894   18.9131   11.3989 H   0  0  0  0  0  0  0  0  0  0  0  0
   24.2072   18.8723   14.1135 H   0  0  0  0  0  0  0  0  0  0  0  0
   27.2312   19.3228   13.9598 H   0  0  0  0  0  0  0  0  0  0  0  0
   25.9652   20.4347   13.3399 H   0  0  0  0  0  0  0  0  0  0  0  0
   26.8080   21.0924   15.6018 H   0  0  0  0  0  0  0  0  0  0  0  0
   25.0434   20.6943   15.5912 H   0  0  0  0  0  0  0  0  0  0  0  0
   25.6022   17.3975   17.1289 H   0  0  0  0  0  0  0  0  0  0  0  0
   28.5843   14.3749    8.5217 H   0  0  0  0  0  0  0  0  0  0  0  0
   29.5777   10.1093    5.6281 H   0  0  0  0  0  0  0  0  0  0  0  0
  1  2  1  0
  2  3  1  0
  3  4  2  0
  4  5  1  0
  5  6  1  0
  6  7  2  0
  6  8  2  0
  6  9  1  0
  9 10  1  0
 10 11  1  0
 11 12  1  0
 12 13  2  0
 13 14  1  0
 14 15  2  0
 15 16  1  0
 16 17  1  0
 17 18  2  0
 18 19  1  0
 19 20  2  0
 20 21  1  0
 21 22  2  0
 21 23  1  0
 23 24  1  0
 24 25  1  0
 25 26  1  0
 26 27  1  0
 27 28  1  0
 28 29  2  0
 28 30  1  0
 30 31  1  0
 31 32  2  0
 24 33  1  0
 33 34  2  0
 16 35  2  0
 35 36  1  0
  5 37  1  0
 37 38  2  0
 38  3  1  0
 36 10  2  0
 36 13  1  0
 22 17  1  0
 31 25  1  0
 33 20  1  0
  1 39  1  0
  1 40  1  0
  1 41  1  0
  2 42  1  0
  2 43  1  0
  4 44  1  0
 11 45  1  0
 14 46  1  0
 15 47  1  0
 18 48  1  0
 19 49  1  0
 22 50  1  0
 23 51  1  0
 23 52  1  0
 25 53  1  1
 26 54  1  0
 26 55  1  0
 27 56  1  0
 27 57  1  0
 30 58  1  0
 35 59  1  0
 37 60  1  0
M  END
>  <meeko>  (290) 
{"is_sidechain": [true], "free_energy": -13.31, "intermolecular_energy": 0.0, "internal_energy": -13.31, "cluster_size": 16, "cluster_id": 1, "rank_in_cluster": 1}

>  <_RMSD_MCS_to_ref>  (290) 
1.723543015510721

$$$$
ligand
     RDKit          3D

 61 65  0  0  0  0  0  0  0  0999 V2000
   24.8540    9.4020    7.6050 C   0  0  0  0  0  0  0  0  0  0  0  0
   25.5230   10.7550    7.4270 C   0  0  0  0  0  0  0  0  0  0  0  0
   27.0060   10.6430    7.3510 C   0  0  0  0  0  0  0  0  0  0  0  0
   27.9020   11.4330    6.6580 C   0  0  0  0  0  0  0  0  0  0  0  0
   29.1180   10.8760    6.9270 N   0  0  0  0  0  0  0  0  0  0  0  0
   30.6190   11.5200    6.5290 S   0  0  0  0  0  6  0  0  0  0  0  0
   31.3570   11.5630    7.7770 O   0  0  0  0  0  0  0  0  0  0  0  0
   31.0880   10.7660    5.3830 O   0  0  0  0  0  0  0  0  0  0  0  0
   30.2480   13.1770    6.0310 C   0  0  0  0  0  0  0  0  0  0  0  0
   30.7000   13.6260    4.7810 C   0  0  0  0  0  0  0  0  0  0  0  0
   30.4050   14.9260    4.3460 C   0  0  0  0  0  0  0  0  0  0  0  0
   29.6550   15.7850    5.1490 C   0  0  0  0  0  0  0  0  0  0  0  0
   29.2220   15.3330    6.3840 C   0  0  0  0  0  0  0  0  0  0  0  0
   29.4980   14.0370    6.8230 C   0  0  0  0  0  0  0  0  0  0  0  0
   28.8370   13.8250    8.1460 C   0  0  0  0  0  0  0  0  0  0  0  0
   28.4450   15.2650    8.5280 C   0  0  2  0  0  0  0  0  0  0  0  0
   27.0900   15.2710    9.2490 C   0  0  0  0  0  0  0  0  0  0  0  0
   26.1760   14.5350    8.8850 O   0  0  0  0  0  0  0  0  0  0  0  0
   27.0510   16.2060   10.2670 N   0  0  0  0  0  0  0  0  0  0  0  0
   25.9810   16.5410   11.1120 C   0  0  0  0  0  0  0  0  0  0  0  0
   24.7080   16.1060   10.7340 C   0  0  0  0  0  0  0  0  0  0  0  0
   23.5940   16.4060   11.5190 C   0  0  0  0  0  0  0  0  0  0  0  0
   23.7440   17.1390   12.6950 C   0  0  0  0  0  0  0  0  0  0  0  0
   25.0120   17.5720   13.1040 C   0  0  0  0  0  0  0  0  0  0  0  0
   25.2100   18.3980   14.3660 C   0  0  1  0  0  0  0  0  0  0  0  0
   26.2840   17.7520   15.2460 C   0  0  0  0  0  0  0  0  0  0  0  0
   26.4310   18.5350   16.5410 C   0  0  0  0  0  0  0  0  0  0  0  0
   26.7570   19.9810   16.2640 C   0  0  0  0  0  0  0  0  0  0  0  0
   27.3650   20.6830   17.0660 O   0  0  0  0  0  0  0  0  0  0  0  0
   26.2810   20.5000   15.0870 N   0  0  0  0  0  0  0  0  0  0  0  0
   25.5490   19.8660   14.1080 C   0  0  0  0  0  0  0  0  0  0  0  0
   25.1660   20.5030   13.1290 O   0  0  0  0  0  0  0  0  0  0  0  0
   26.1250   17.2710   12.2950 C   0  0  0  0  0  0  0  0  0  0  0  0
   28.3870   16.0660    7.2630 N   0  0  0  0  0  0  0  0  0  0  0  0
   28.9480    9.8210    7.7650 C   0  0  0  0  0  0  0  0  0  0  0  0
   27.6730    9.6510    8.0430 N   0  0  0  0  0  0  0  0  0  0  0  0
   24.7464    9.1845    8.6779 H   0  0  0  0  0  0  0  0  0  0  0  0
   23.8606    9.4192    7.1330 H   0  0  0  0  0  0  0  0  0  0  0  0
   25.4708    8.6230    7.1330 H   0  0  0  0  0  0  0  0  0  0  0  0
   25.1541   11.2131    6.4975 H   0  0  0  0  0  0  0  0  0  0  0  0
   25.2752   11.3724    8.3030 H   0  0  0  0  0  0  0  0  0  0  0  0
   27.6848   12.3110    6.0320 H   0  0  0  0  0  0  0  0  0  0  0  0
   31.2889   12.9547    4.1388 H   0  0  0  0  0  0  0  0  0  0  0  0
   30.7671   15.2702    3.3660 H   0  0  0  0  0  0  0  0  0  0  0  0
   29.4121   16.8021    4.8077 H   0  0  0  0  0  0  0  0  0  0  0  0
   27.9517   13.1786    8.0539 H   0  0  0  0  0  0  0  0  0  0  0  0
   29.4725   13.3212    8.8892 H   0  0  0  0  0  0  0  0  0  0  0  0
   29.1827   15.7032    9.2164 H   0  0  0  0  0  0  0  0  0  0  0  0
   27.9250   16.7271   10.4270 H   0  0  0  0  0  0  0  0  0  0  0  0
   24.5830   15.5223    9.8101 H   0  0  0  0  0  0  0  0  0  0  0  0
   22.5957   16.0634   11.2092 H   0  0  0  0  0  0  0  0  0  0  0  0
   22.8612   17.3790   13.3058 H   0  0  0  0  0  0  0  0  0  0  0  0
   24.2399   18.4034   14.8844 H   0  0  0  0  0  0  0  0  0  0  0  0
   25.9925   16.7167   15.4767 H   0  0  0  0  0  0  0  0  0  0  0  0
   27.2438   17.7568   14.7087 H   0  0  0  0  0  0  0  0  0  0  0  0
   25.4873   18.4804   17.1035 H   0  0  0  0  0  0  0  0  0  0  0  0
   27.2535   18.0959   17.1247 H   0  0  0  0  0  0  0  0  0  0  0  0
   26.4991   21.4915   14.9130 H   0  0  0  0  0  0  0  0  0  0  0  0
   27.1241   17.6162   12.5994 H   0  0  0  0  0  0  0  0  0  0  0  0
   27.8676   16.9360    7.0779 H   0  0  0  0  0  0  0  0  0  0  0  0
   29.7632    9.1952    8.1571 H   0  0  0  0  0  0  0  0  0  0  0  0
  1  2  1  0
  2  3  1  0
  3  4  2  0
  4  5  1  0
  5  6  1  0
  6  7  2  0
  6  8  2  0
  6  9  1  0
  9 10  2  0
 10 11  1  0
 11 12  2  0
 12 13  1  0
 13 14  2  0
 14 15  1  0
 15 16  1  0
 16 17  1  0
 17 18  2  0
 17 19  1  0
 19 20  1  0
 20 21  2  0
 21 22  1  0
 22 23  2  0
 23 24  1  0
 24 25  1  0
 25 26  1  0
 26 27  1  0
 27 28  1  0
 28 29  2  0
 28 30  1  0
 30 31  1  0
 31 32  2  0
 24 33  2  0
 16 34  1  0
  5 35  1  0
 35 36  2  0
 36  3  1  0
 14  9  1  0
 33 20  1  0
 34 13  1  0
 31 25  1  0
  1 37  1  0
  1 38  1  0
  1 39  1  0
  2 40  1  0
  2 41  1  0
  4 42  1  0
 10 43  1  0
 11 44  1  0
 12 45  1  0
 15 46  1  0
 15 47  1  0
 16 48  1  1
 19 49  1  0
 21 50  1  0
 22 51  1  0
 23 52  1  0
 25 53  1  1
 26 54  1  0
 26 55  1  0
 27 56  1  0
 27 57  1  0
 30 58  1  0
 33 59  1  0
 34 60  1  0
 35 61  1  0
M  END
>  <meeko>  (291) 
{"is_sidechain": [true], "free_energy": -13.3, "intermolecular_energy": 0.0, "internal_energy": -13.3, "cluster_size": 20, "cluster_id": 1, "rank_in_cluster": 1}

>  <_RMSD_MCS_to_ref>  (291) 
0.5008517744802341

$$$$
ligand
     RDKit          3D

 64 69  0  0  0  0  0  0  0  0999 V2000
   24.8540    9.4020    7.6050 C   0  0  0  0  0  0  0  0  0  0  0  0
   25.5230   10.7550    7.4270 C   0  0  0  0  0  0  0  0  0  0  0  0
   26.9720   10.6260    7.1060 C   0  0  0  0  0  0  0  0  0  0  0  0
   27.6810   11.1760    6.0550 C   0  0  0  0  0  0  0  0  0  0  0  0
   28.9540   10.7160    6.2300 N   0  0  0  0  0  0  0  0  0  0  0  0
   30.3180   11.2220    5.3860 S   0  0  0  0  0  6  0  0  0  0  0  0
   31.4240   11.0390    6.3050 O   0  0  0  0  0  0  0  0  0  0  0  0
   30.2580   10.5680    4.0930 O   0  0  0  0  0  0  0  0  0  0  0  0
   30.0530   12.9560    5.1360 C   0  0  0  0  0  0  0  0  0  0  0  0
   31.0400   13.7250    4.4840 C   0  0  0  0  0  0  0  0  0  0  0  0
   30.8520   15.0990    4.3080 C   0  0  0  0  0  0  0  0  0  0  0  0
   29.6870   15.6480    4.7930 C   0  0  0  0  0  0  0  0  0  0  0  0
   28.7260   14.8940    5.4200 C   0  0  0  0  0  0  0  0  0  0  0  0
   28.8640   13.5360    5.5960 C   0  0  0  0  0  0  0  0  0  0  0  0
   27.8230   16.0810    5.6840 C   0  0  1  0  0  0  0  0  0  0  0  0
   27.6200   16.3430    7.2110 C   0  0  0  0  0  0  0  0  0  0  0  0
   28.5570   16.4470    8.0050 O   0  0  0  0  0  0  0  0  0  0  0  0
   26.2790   16.4530    7.5570 N   0  0  0  0  0  0  0  0  0  0  0  0
   25.7130   16.5020    8.8470 C   0  0  0  0  0  0  0  0  0  0  0  0
   24.4670   15.9360    9.1840 C   0  0  0  0  0  0  0  0  0  0  0  0
   23.9290   16.0620   10.4750 C   0  0  0  0  0  0  0  0  0  0  0  0
   24.6530   16.7600   11.4210 C   0  0  0  0  0  0  0  0  0  0  0  0
   25.8850   17.3080   11.0830 C   0  0  0  0  0  0  0  0  0  0  0  0
   26.4380   17.1980    9.8210 C   0  0  0  0  0  0  0  0  0  0  0  0
   26.4110   18.0070   12.2570 C   0  0  0  0  0  0  0  0  0  0  0  0
   27.4280   18.6730   12.2580 O   0  0  0  0  0  0  0  0  0  0  0  0
   25.5190   17.7820   13.2930 N   0  0  0  0  0  0  0  0  0  0  0  0
   25.5380   18.5040   14.5600 C   0  0  1  0  0  0  0  0  0  0  0  0
   26.5470   17.9520   15.5670 C   0  0  0  0  0  0  0  0  0  0  0  0
   26.4450   18.7380   16.8650 C   0  0  0  0  0  0  0  0  0  0  0  0
   26.6580   20.2150   16.6300 C   0  0  0  0  0  0  0  0  0  0  0  0
   27.0520   20.9680   17.5160 O   0  0  0  0  0  0  0  0  0  0  0  0
   26.3130   20.6980   15.3930 N   0  0  0  0  0  0  0  0  0  0  0  0
   25.7720   20.0060   14.3340 C   0  0  0  0  0  0  0  0  0  0  0  0
   25.4210   20.6020   13.3160 O   0  0  0  0  0  0  0  0  0  0  0  0
   24.3180   17.0920   12.8350 C   0  0  0  0  0  0  0  0  0  0  0  0
   28.9210   16.9300    4.9410 C   0  0  0  0  0  0  0  0  0  0  0  0
   29.0030    9.9590    7.3570 C   0  0  0  0  0  0  0  0  0  0  0  0
   27.8120    9.8790    7.9110 N   0  0  0  0  0  0  0  0  0  0  0  0
   24.7464    9.1845    8.6779 H   0  0  0  0  0  0  0  0  0  0  0  0
   23.8606    9.4192    7.1330 H   0  0  0  0  0  0  0  0  0  0  0  0
   25.4708    8.6230    7.1330 H   0  0  0  0  0  0  0  0  0  0  0  0
   25.0244   11.2920    6.6066 H   0  0  0  0  0  0  0  0  0  0  0  0
   25.4339   11.3043    8.3759 H   0  0  0  0  0  0  0  0  0  0  0  0
   27.3049   11.8348    5.2584 H   0  0  0  0  0  0  0  0  0  0  0  0
   31.9573   13.2435    4.1142 H   0  0  0  0  0  0  0  0  0  0  0  0
   31.6068   15.7180    3.8010 H   0  0  0  0  0  0  0  0  0  0  0  0
   28.0776   12.9345    6.0753 H   0  0  0  0  0  0  0  0  0  0  0  0
   26.7671   16.1506    5.3837 H   0  0  0  0  0  0  0  0  0  0  0  0
   25.6145   16.5054    6.7718 H   0  0  0  0  0  0  0  0  0  0  0  0
   23.9031   15.3830    8.4183 H   0  0  0  0  0  0  0  0  0  0  0  0
   22.9554   15.6159   10.7262 H   0  0  0  0  0  0  0  0  0  0  0  0
   27.4168   17.6434    9.5896 H   0  0  0  0  0  0  0  0  0  0  0  0
   24.5432   18.3532   15.0044 H   0  0  0  0  0  0  0  0  0  0  0  0
   26.3289   16.8916   15.7617 H   0  0  0  0  0  0  0  0  0  0  0  0
   27.5639   18.0466   15.1585 H   0  0  0  0  0  0  0  0  0  0  0  0
   25.4461   18.5846   17.2993 H   0  0  0  0  0  0  0  0  0  0  0  0
   27.2266   18.3791   17.5508 H   0  0  0  0  0  0  0  0  0  0  0  0
   26.4796   21.7026   15.2380 H   0  0  0  0  0  0  0  0  0  0  0  0
   24.1343   16.1813   13.4239 H   0  0  0  0  0  0  0  0  0  0  0  0
   23.4022   17.6925   12.9382 H   0  0  0  0  0  0  0  0  0  0  0  0
   28.5921   17.3835    3.9944 H   0  0  0  0  0  0  0  0  0  0  0  0
   29.3671   17.8306    5.3882 H   0  0  0  0  0  0  0  0  0  0  0  0
   29.9113    9.4799    7.7513 H   0  0  0  0  0  0  0  0  0  0  0  0
  1  2  1  0
  2  3  1  0
  3  4  2  0
  4  5  1  0
  5  6  1  0
  6  7  2  0
  6  8  2  0
  6  9  1  0
  9 10  2  0
 10 11  1  0
 11 12  2  0
 12 13  1  0
 13 14  2  0
 13 15  1  0
 15 16  1  0
 16 17  2  0
 16 18  1  0
 18 19  1  0
 19 20  2  0
 20 21  1  0
 21 22  2  0
 22 23  1  0
 23 24  2  0
 23 25  1  0
 25 26  2  0
 25 27  1  0
 27 28  1  0
 28 29  1  0
 29 30  1  0
 30 31  1  0
 31 32  2  0
 31 33  1  0
 33 34  1  0
 34 35  2  0
 27 36  1  0
 15 37  1  0
  5 38  1  0
 38 39  2  0
 39  3  1  0
 14  9  1  0
 24 19  1  0
 34 28  1  0
 37 12  1  0
 36 22  1  0
  1 40  1  0
  1 41  1  0
  1 42  1  0
  2 43  1  0
  2 44  1  0
  4 45  1  0
 10 46  1  0
 11 47  1  0
 14 48  1  0
 15 49  1  6
 18 50  1  0
 20 51  1  0
 21 52  1  0
 24 53  1  0
 28 54  1  1
 29 55  1  0
 29 56  1  0
 30 57  1  0
 30 58  1  0
 33 59  1  0
 36 60  1  0
 36 61  1  0
 37 62  1  0
 37 63  1  0
 38 64  1  0
M  END
>  <meeko>  (292) 
{"is_sidechain": [true], "free_energy": -13.29, "intermolecular_energy": 0.0, "internal_energy": -13.29, "cluster_size": 18, "cluster_id": 1, "rank_in_cluster": 1}

>  <_RMSD_MCS_to_ref>  (292) 
0.6571093896757209

$$$$
ligand
     RDKit          3D

 60 65  0  0  0  0  0  0  0  0999 V2000
   24.8540    9.4020    7.6050 C   0  0  0  0  0  0  0  0  0  0  0  0
   25.5230   10.7550    7.4270 C   0  0  0  0  0  0  0  0  0  0  0  0
   26.9920   10.6330    7.2200 C   0  0  0  0  0  0  0  0  0  0  0  0
   27.7240   10.8250    6.0650 C   0  0  0  0  0  0  0  0  0  0  0  0
   29.0160   10.5780    6.4400 N   0  0  0  0  0  0  0  0  0  0  0  0
   30.3990   10.9640    5.5480 S   0  0  0  0  0  6  0  0  0  0  0  0
   30.2050   10.3350    4.2550 O   0  0  0  0  0  0  0  0  0  0  0  0
   31.4980   10.5750    6.4140 O   0  0  0  0  0  0  0  0  0  0  0  0
   30.4420   12.5930    5.3700 O   0  0  0  0  0  0  0  0  0  0  0  0
   30.5280   13.3700    6.4960 C   0  0  0  0  0  0  0  0  0  0  0  0
   31.7720   13.7810    6.9680 C   0  0  0  0  0  0  0  0  0  0  0  0
   31.8690   14.5860    8.1060 C   0  0  0  0  0  0  0  0  0  0  0  0
   30.6730   14.9560    8.7310 C   0  0  0  0  0  0  0  0  0  0  0  0
   30.4270   15.7200    9.8370 N   0  0  0  0  0  0  0  0  0  0  0  0
   29.1270   15.8540   10.1390 N   0  0  0  0  0  0  0  0  0  0  0  0
   28.4860   15.1700    9.1760 C   0  0  0  0  0  0  0  0  0  0  0  0
   27.0270   15.1210    9.1310 C   0  0  0  0  0  0  0  0  0  0  0  0
   26.3590   14.3930    8.1290 C   0  0  0  0  0  0  0  0  0  0  0  0
   24.9520   14.3180    8.0870 C   0  0  0  0  0  0  0  0  0  0  0  0
   24.1820   14.9730    9.0440 C   0  0  0  0  0  0  0  0  0  0  0  0
   24.8540   15.6990   10.0090 C   0  0  0  0  0  0  0  0  0  0  0  0
   26.2450   15.7900   10.0630 C   0  0  0  0  0  0  0  0  0  0  0  0
   26.6470   16.6320   11.2290 C   0  0  0  0  0  0  0  0  0  0  0  0
   25.3660   17.0660   11.7740 N   0  0  0  0  0  0  0  0  0  0  0  0
   25.2820   17.7400   13.0630 C   0  0  1  0  0  0  0  0  0  0  0  0
   25.8750   16.9330   14.2180 C   0  0  0  0  0  0  0  0  0  0  0  0
   25.6800   17.6960   15.5190 C   0  0  0  0  0  0  0  0  0  0  0  0
   26.2920   19.0760   15.4410 C   0  0  0  0  0  0  0  0  0  0  0  0
   26.6270   19.6990   16.4450 O   0  0  0  0  0  0  0  0  0  0  0  0
   26.3800   19.6420   14.1950 N   0  0  0  0  0  0  0  0  0  0  0  0
   25.9160   19.1380   13.0010 C   0  0  0  0  0  0  0  0  0  0  0  0
   25.9280   19.8360   11.9880 O   0  0  0  0  0  0  0  0  0  0  0  0
   24.2970   16.4660   11.1290 C   0  0  0  0  0  0  0  0  0  0  0  0
   23.1160   16.5180   11.4120 O   0  0  0  0  0  0  0  0  0  0  0  0
   29.4200   14.5540    8.2820 C   0  0  0  0  0  0  0  0  0  0  0  0
   29.3430   13.7110    7.1570 C   0  0  0  0  0  0  0  0  0  0  0  0
   29.0450   10.2970    7.7690 C   0  0  0  0  0  0  0  0  0  0  0  0
   27.8290   10.3180    8.2740 N   0  0  0  0  0  0  0  0  0  0  0  0
   24.7464    9.1845    8.6779 H   0  0  0  0  0  0  0  0  0  0  0  0
   23.8606    9.4192    7.1330 H   0  0  0  0  0  0  0  0  0  0  0  0
   25.4708    8.6230    7.1330 H   0  0  0  0  0  0  0  0  0  0  0  0
   25.0824   11.2557    6.5523 H   0  0  0  0  0  0  0  0  0  0  0  0
   25.3586   11.3365    8.3461 H   0  0  0  0  0  0  0  0  0  0  0  0
   27.3527   11.1114    5.0700 H   0  0  0  0  0  0  0  0  0  0  0  0
   32.6857   13.4694    6.4407 H   0  0  0  0  0  0  0  0  0  0  0  0
   32.8443   14.9149    8.4941 H   0  0  0  0  0  0  0  0  0  0  0  0
   31.1769   16.1563   10.3921 H   0  0  0  0  0  0  0  0  0  0  0  0
   26.9482   13.8705    7.3610 H   0  0  0  0  0  0  0  0  0  0  0  0
   24.4592   13.7380    7.2927 H   0  0  0  0  0  0  0  0  0  0  0  0
   23.0836   14.9151    9.0326 H   0  0  0  0  0  0  0  0  0  0  0  0
   27.2118   16.0429   11.9666 H   0  0  0  0  0  0  0  0  0  0  0  0
   27.3079   17.4674   10.9544 H   0  0  0  0  0  0  0  0  0  0  0  0
   24.2074   17.8408   13.2752 H   0  0  0  0  0  0  0  0  0  0  0  0
   25.3677   15.9592   14.2839 H   0  0  0  0  0  0  0  0  0  0  0  0
   26.9492   16.7743   14.0423 H   0  0  0  0  0  0  0  0  0  0  0  0
   24.6029   17.7921   15.7205 H   0  0  0  0  0  0  0  0  0  0  0  0
   26.1778   17.1396   16.3268 H   0  0  0  0  0  0  0  0  0  0  0  0
   26.8512   20.5566   14.1466 H   0  0  0  0  0  0  0  0  0  0  0  0
   28.3731   13.3291    6.8057 H   0  0  0  0  0  0  0  0  0  0  0  0
   29.9579   10.0817    8.3436 H   0  0  0  0  0  0  0  0  0  0  0  0
  1  2  1  0
  2  3  1  0
  3  4  2  0
  4  5  1  0
  5  6  1  0
  6  7  2  0
  6  8  2  0
  6  9  1  0
  9 10  1  0
 10 11  2  0
 11 12  1  0
 12 13  2  0
 13 14  1  0
 14 15  1  0
 15 16  2  0
 16 17  1  0
 17 18  2  0
 18 19  1  0
 19 20  2  0
 20 21  1  0
 21 22  2  0
 22 23  1  0
 23 24  1  0
 24 25  1  0
 25 26  1  0
 26 27  1  0
 27 28  1  0
 28 29  2  0
 28 30  1  0
 30 31  1  0
 31 32  2  0
 24 33  1  0
 33 34  2  0
 16 35  1  0
 35 36  2  0
  5 37  1  0
 37 38  2  0
 38  3  1  0
 36 10  1  0
 35 13  1  0
 22 17  1  0
 31 25  1  0
 33 21  1  0
  1 39  1  0
  1 40  1  0
  1 41  1  0
  2 42  1  0
  2 43  1  0
  4 44  1  0
 11 45  1  0
 12 46  1  0
 14 47  1  0
 18 48  1  0
 19 49  1  0
 20 50  1  0
 23 51  1  0
 23 52  1  0
 25 53  1  1
 26 54  1  0
 26 55  1  0
 27 56  1  0
 27 57  1  0
 30 58  1  0
 36 59  1  0
 37 60  1  0
M  END
>  <meeko>  (293) 
{"is_sidechain": [true], "free_energy": -13.28, "intermolecular_energy": 0.0, "internal_energy": -13.28, "cluster_size": 17, "cluster_id": 2, "rank_in_cluster": 1}

>  <_RMSD_MCS_to_ref>  (293) 
1.7289239106707064

$$$$
ligand
     RDKit          3D

 61 66  0  0  0  0  0  0  0  0999 V2000
   24.8540    9.4020    7.6050 C   0  0  0  0  0  0  0  0  0  0  0  0
   25.5230   10.7550    7.4270 C   0  0  0  0  0  0  0  0  0  0  0  0
   24.9730   11.5060    6.2660 C   0  0  0  0  0  0  0  0  0  0  0  0
   25.0980   12.8470    5.9610 C   0  0  0  0  0  0  0  0  0  0  0  0
   24.3880   12.9970    4.8050 N   0  0  0  0  0  0  0  0  0  0  0  0
   24.3700   14.3760    3.8350 S   0  0  0  0  0  6  0  0  0  0  0  0
   23.2480   14.1740    2.9330 O   0  0  0  0  0  0  0  0  0  0  0  0
   25.7270   14.4980    3.3380 O   0  0  0  0  0  0  0  0  0  0  0  0
   24.0550   15.6230    4.8420 O   0  0  0  0  0  0  0  0  0  0  0  0
   25.0580   16.2170    5.5470 C   0  0  0  0  0  0  0  0  0  0  0  0
   26.1400   16.8710    5.0040 C   0  0  0  0  0  0  0  0  0  0  0  0
   27.1350   17.4120    5.7470 N   0  0  0  0  0  0  0  0  0  0  0  0
   27.0880   17.3300    7.0800 C   0  0  0  0  0  0  0  0  0  0  0  0
   28.0880   17.8850    7.7620 N   0  0  0  0  0  0  0  0  0  0  0  0
   28.0740   17.8440    9.1100 C   0  0  0  0  0  0  0  0  0  0  0  0
   27.0600   17.2750    9.8480 C   0  0  0  0  0  0  0  0  0  0  0  0
   25.9940   16.6960    9.1630 C   0  0  0  0  0  0  0  0  0  0  0  0
   24.8550   16.1580    9.9240 C   0  0  0  0  0  0  0  0  0  0  0  0
   23.8260   15.4310    9.2980 C   0  0  0  0  0  0  0  0  0  0  0  0
   22.6790   15.0200   10.0070 C   0  0  0  0  0  0  0  0  0  0  0  0
   22.5210   15.3460   11.3540 C   0  0  0  0  0  0  0  0  0  0  0  0
   23.5470   16.0410   11.9620 C   0  0  0  0  0  0  0  0  0  0  0  0
   24.7080   16.4130   11.2860 C   0  0  0  0  0  0  0  0  0  0  0  0
   25.6260   17.1280   12.2210 C   0  0  0  0  0  0  0  0  0  0  0  0
   24.8310   17.2530   13.4350 N   0  0  0  0  0  0  0  0  0  0  0  0
   25.0320   18.3590   14.3690 C   0  0  1  0  0  0  0  0  0  0  0  0
   25.6480   17.8780   15.6800 C   0  0  0  0  0  0  0  0  0  0  0  0
   25.8900   19.0670   16.5960 C   0  0  0  0  0  0  0  0  0  0  0  0
   26.8090   20.0660   15.9370 C   0  0  0  0  0  0  0  0  0  0  0  0
   27.5990   20.7520   16.5790 O   0  0  0  0  0  0  0  0  0  0  0  0
   26.6810   20.2030   14.5780 N   0  0  0  0  0  0  0  0  0  0  0  0
   25.9260   19.4390   13.7190 C   0  0  0  0  0  0  0  0  0  0  0  0
   25.9790   19.6400   12.5040 O   0  0  0  0  0  0  0  0  0  0  0  0
   23.5960   16.6280   13.3070 C   0  0  0  0  0  0  0  0  0  0  0  0
   22.6820   16.6110   14.1090 O   0  0  0  0  0  0  0  0  0  0  0  0
   26.0180   16.6940    7.7360 C   0  0  0  0  0  0  0  0  0  0  0  0
   25.0170   16.1010    6.9280 C   0  0  0  0  0  0  0  0  0  0  0  0
   23.9310   11.7820    4.4040 C   0  0  0  0  0  0  0  0  0  0  0  0
   24.2460   10.8570    5.2870 N   0  0  0  0  0  0  0  0  0  0  0  0
   24.7464    9.1845    8.6779 H   0  0  0  0  0  0  0  0  0  0  0  0
   23.8606    9.4192    7.1330 H   0  0  0  0  0  0  0  0  0  0  0  0
   25.4708    8.6230    7.1330 H   0  0  0  0  0  0  0  0  0  0  0  0
   25.3676   11.3497    8.3393 H   0  0  0  0  0  0  0  0  0  0  0  0
   26.5929   10.5806    7.2400 H   0  0  0  0  0  0  0  0  0  0  0  0
   25.6453   13.6188    6.5221 H   0  0  0  0  0  0  0  0  0  0  0  0
   26.2001   16.9591    3.9092 H   0  0  0  0  0  0  0  0  0  0  0  0
   28.9212   18.2907    9.6511 H   0  0  0  0  0  0  0  0  0  0  0  0
   27.0909   17.2776   10.9476 H   0  0  0  0  0  0  0  0  0  0  0  0
   23.9185   15.1776    8.2316 H   0  0  0  0  0  0  0  0  0  0  0  0
   21.9010   14.4365    9.4930 H   0  0  0  0  0  0  0  0  0  0  0  0
   21.6153   15.0608   11.9093 H   0  0  0  0  0  0  0  0  0  0  0  0
   26.5378   16.5408   12.4050 H   0  0  0  0  0  0  0  0  0  0  0  0
   25.9726   18.0960   11.8301 H   0  0  0  0  0  0  0  0  0  0  0  0
   24.0487   18.7933   14.6027 H   0  0  0  0  0  0  0  0  0  0  0  0
   24.9612   17.1722   16.1700 H   0  0  0  0  0  0  0  0  0  0  0  0
   26.6046   17.3764   15.4719 H   0  0  0  0  0  0  0  0  0  0  0  0
   24.9287   19.5527   16.8197 H   0  0  0  0  0  0  0  0  0  0  0  0
   26.3607   18.7101   17.5239 H   0  0  0  0  0  0  0  0  0  0  0  0
   27.2155   20.9717   14.1486 H   0  0  0  0  0  0  0  0  0  0  0  0
   24.1970   15.5416    7.4020 H   0  0  0  0  0  0  0  0  0  0  0  0
   23.3758   11.5969    3.4726 H   0  0  0  0  0  0  0  0  0  0  0  0
  1  2  1  0
  2  3  1  0
  3  4  2  0
  4  5  1  0
  5  6  1  0
  6  7  2  0
  6  8  2  0
  6  9  1  0
  9 10  1  0
 10 11  2  0
 11 12  1  0
 12 13  2  0
 13 14  1  0
 14 15  2  0
 15 16  1  0
 16 17  2  0
 17 18  1  0
 18 19  2  0
 19 20  1  0
 20 21  2  0
 21 22  1  0
 22 23  2  0
 23 24  1  0
 24 25  1  0
 25 26  1  0
 26 27  1  0
 27 28  1  0
 28 29  1  0
 29 30  2  0
 29 31  1  0
 31 32  1  0
 32 33  2  0
 25 34  1  0
 34 35  2  0
 17 36  1  0
 36 37  2  0
  5 38  1  0
 38 39  2  0
 39  3  1  0
 37 10  1  0
 36 13  1  0
 23 18  1  0
 32 26  1  0
 34 22  1  0
  1 40  1  0
  1 41  1  0
  1 42  1  0
  2 43  1  0
  2 44  1  0
  4 45  1  0
 11 46  1  0
 15 47  1  0
 16 48  1  0
 19 49  1  0
 20 50  1  0
 21 51  1  0
 24 52  1  0
 24 53  1  0
 26 54  1  1
 27 55  1  0
 27 56  1  0
 28 57  1  0
 28 58  1  0
 31 59  1  0
 37 60  1  0
 38 61  1  0
M  END
>  <meeko>  (294) 
{"is_sidechain": [true], "free_energy": -13.28, "intermolecular_energy": 0.0, "internal_energy": -13.28, "cluster_size": 5, "cluster_id": 1, "rank_in_cluster": 1}

>  <_RMSD_MCS_to_ref>  (294) 
0.9921700123130774

$$$$
ligand
     RDKit          3D

 62 67  0  0  0  0  0  0  0  0999 V2000
   24.8540    9.4020    7.6050 C   0  0  0  0  0  0  0  0  0  0  0  0
   25.5230   10.7550    7.4270 C   0  0  0  0  0  0  0  0  0  0  0  0
   25.1600   11.3970    6.1360 C   0  0  0  0  0  0  0  0  0  0  0  0
   24.6580   12.6640    5.9090 C   0  0  0  0  0  0  0  0  0  0  0  0
   24.5080   12.7280    4.5520 N   0  0  0  0  0  0  0  0  0  0  0  0
   23.8100   13.9900    3.6860 S   0  0  0  0  0  6  0  0  0  0  0  0
   22.3820   13.8490    3.9260 O   0  0  0  0  0  0  0  0  0  0  0  0
   24.3880   13.8940    2.3560 O   0  0  0  0  0  0  0  0  0  0  0  0
   24.4080   15.4580    4.4900 C   0  0  0  0  0  0  0  0  0  0  0  0
   25.0210   15.2900    5.6680 N   0  0  0  0  0  0  0  0  0  0  0  0
   25.4880   16.4080    6.2500 C   0  0  0  0  0  0  0  0  0  0  0  0
   26.1910   16.2960    7.4790 N   0  0  0  0  0  0  0  0  0  0  0  0
   25.6620   16.4350    8.7840 C   0  0  0  0  0  0  0  0  0  0  0  0
   24.3890   15.9280    9.1300 C   0  0  0  0  0  0  0  0  0  0  0  0
   23.8460   16.0880   10.4140 C   0  0  0  0  0  0  0  0  0  0  0  0
   24.5870   16.7780   11.3490 C   0  0  0  0  0  0  0  0  0  0  0  0
   25.8270   17.3020   11.0030 C   0  0  0  0  0  0  0  0  0  0  0  0
   26.3800   17.1640    9.7410 C   0  0  0  0  0  0  0  0  0  0  0  0
   26.3760   17.9860   12.1770 C   0  0  0  0  0  0  0  0  0  0  0  0
   27.4150   18.6180   12.1820 O   0  0  0  0  0  0  0  0  0  0  0  0
   25.4840   17.7740   13.2180 N   0  0  0  0  0  0  0  0  0  0  0  0
   25.5370   18.4680   14.5010 C   0  0  1  0  0  0  0  0  0  0  0  0
   26.6260   17.9450   15.4380 C   0  0  0  0  0  0  0  0  0  0  0  0
   26.5540   18.6910   16.7610 C   0  0  0  0  0  0  0  0  0  0  0  0
   26.6780   20.1830   16.5550 C   0  0  0  0  0  0  0  0  0  0  0  0
   27.0670   20.9350   17.4440 O   0  0  0  0  0  0  0  0  0  0  0  0
   26.2550   20.6760   15.3470 N   0  0  0  0  0  0  0  0  0  0  0  0
   25.6770   19.9860   14.3060 C   0  0  0  0  0  0  0  0  0  0  0  0
   25.2180   20.5930   13.3390 O   0  0  0  0  0  0  0  0  0  0  0  0
   24.2660   17.1150   12.7650 C   0  0  0  0  0  0  0  0  0  0  0  0
   25.3140   17.6840    5.6700 C   0  0  0  0  0  0  0  0  0  0  0  0
   25.7460   18.9050    6.2470 C   0  0  0  0  0  0  0  0  0  0  0  0
   25.5340   20.1200    5.5970 C   0  0  0  0  0  0  0  0  0  0  0  0
   24.8880   20.1310    4.3690 C   0  0  0  0  0  0  0  0  0  0  0  0
   24.4520   18.9310    3.8020 C   0  0  0  0  0  0  0  0  0  0  0  0
   24.6490   17.7090    4.4320 C   0  0  0  0  0  0  0  0  0  0  0  0
   24.1980   16.6080    3.8300 N   0  0  0  0  0  0  0  0  0  0  0  0
   24.8810   11.5400    4.0080 C   0  0  0  0  0  0  0  0  0  0  0  0
   25.2930   10.7090    4.9440 N   0  0  0  0  0  0  0  0  0  0  0  0
   24.7464    9.1845    8.6779 H   0  0  0  0  0  0  0  0  0  0  0  0
   23.8606    9.4192    7.1330 H   0  0  0  0  0  0  0  0  0  0  0  0
   25.4708    8.6230    7.1330 H   0  0  0  0  0  0  0  0  0  0  0  0
   25.2118   11.4148    8.2503 H   0  0  0  0  0  0  0  0  0  0  0  0
   26.6114   10.5959    7.4301 H   0  0  0  0  0  0  0  0  0  0  0  0
   24.4308   13.4435    6.6512 H   0  0  0  0  0  0  0  0  0  0  0  0
   27.1982   16.0907    7.4130 H   0  0  0  0  0  0  0  0  0  0  0  0
   23.8050   15.3907    8.3683 H   0  0  0  0  0  0  0  0  0  0  0  0
   22.8583   15.6750   10.6667 H   0  0  0  0  0  0  0  0  0  0  0  0
   27.3540   17.6133    9.4972 H   0  0  0  0  0  0  0  0  0  0  0  0
   24.5765   18.2549   14.9931 H   0  0  0  0  0  0  0  0  0  0  0  0
   26.4737   16.8699   15.6140 H   0  0  0  0  0  0  0  0  0  0  0  0
   27.6131   18.1040   14.9795 H   0  0  0  0  0  0  0  0  0  0  0  0
   25.5892   18.4744   17.2429 H   0  0  0  0  0  0  0  0  0  0  0  0
   27.3883   18.3566   17.3951 H   0  0  0  0  0  0  0  0  0  0  0  0
   26.3861   21.6871   15.2010 H   0  0  0  0  0  0  0  0  0  0  0  0
   24.0630   16.2078   13.3530 H   0  0  0  0  0  0  0  0  0  0  0  0
   23.3653   17.7370   12.8736 H   0  0  0  0  0  0  0  0  0  0  0  0
   26.2558   18.8934    7.2217 H   0  0  0  0  0  0  0  0  0  0  0  0
   25.8755   21.0609    6.0532 H   0  0  0  0  0  0  0  0  0  0  0  0
   24.7196   21.0824    3.8432 H   0  0  0  0  0  0  0  0  0  0  0  0
   23.9384   18.9546    2.8296 H   0  0  0  0  0  0  0  0  0  0  0  0
   24.8441   11.3044    2.9342 H   0  0  0  0  0  0  0  0  0  0  0  0
  1  2  1  0
  2  3  1  0
  3  4  2  0
  4  5  1  0
  5  6  1  0
  6  7  2  0
  6  8  2  0
  6  9  1  0
  9 10  2  0
 10 11  1  0
 11 12  1  0
 12 13  1  0
 13 14  2  0
 14 15  1  0
 15 16  2  0
 16 17  1  0
 17 18  2  0
 17 19  1  0
 19 20  2  0
 19 21  1  0
 21 22  1  0
 22 23  1  0
 23 24  1  0
 24 25  1  0
 25 26  2  0
 25 27  1  0
 27 28  1  0
 28 29  2  0
 21 30  1  0
 11 31  2  0
 31 32  1  0
 32 33  2  0
 33 34  1  0
 34 35  2  0
 35 36  1  0
 36 37  2  0
  5 38  1  0
 38 39  2  0
 39  3  1  0
 37  9  1  0
 18 13  1  0
 28 22  1  0
 36 31  1  0
 30 16  1  0
  1 40  1  0
  1 41  1  0
  1 42  1  0
  2 43  1  0
  2 44  1  0
  4 45  1  0
 12 46  1  0
 14 47  1  0
 15 48  1  0
 18 49  1  0
 22 50  1  1
 23 51  1  0
 23 52  1  0
 24 53  1  0
 24 54  1  0
 27 55  1  0
 30 56  1  0
 30 57  1  0
 32 58  1  0
 33 59  1  0
 34 60  1  0
 35 61  1  0
 38 62  1  0
M  END
>  <meeko>  (295) 
{"is_sidechain": [true], "free_energy": -13.27, "intermolecular_energy": 0.0, "internal_energy": -13.27, "cluster_size": 15, "cluster_id": 1, "rank_in_cluster": 1}

>  <_RMSD_MCS_to_ref>  (295) 
0.5953636610416255

$$$$
ligand
     RDKit          3D

 61 65  0  0  0  0  0  0  0  0999 V2000
   24.8540    9.4020    7.6050 C   0  0  0  0  0  0  0  0  0  0  0  0
   25.5230   10.7550    7.4270 C   0  0  0  0  0  0  0  0  0  0  0  0
   27.0050   10.6430    7.3500 C   0  0  0  0  0  0  0  0  0  0  0  0
   27.9030   11.4390    6.6660 C   0  0  0  0  0  0  0  0  0  0  0  0
   29.1190   10.8820    6.9370 N   0  0  0  0  0  0  0  0  0  0  0  0
   30.6110   11.5370    6.5230 S   0  0  0  0  0  6  0  0  0  0  0  0
   31.0390   10.7480    5.3800 O   0  0  0  0  0  0  0  0  0  0  0  0
   31.3720   11.6070    7.7550 O   0  0  0  0  0  0  0  0  0  0  0  0
   30.2650   13.1810    5.9830 C   0  0  0  0  0  0  0  0  0  0  0  0
   30.7300   13.6380    4.7400 C   0  0  0  0  0  0  0  0  0  0  0  0
   30.4670   14.9540    4.3270 C   0  0  0  0  0  0  0  0  0  0  0  0
   29.7360   15.8190    5.1400 C   0  0  0  0  0  0  0  0  0  0  0  0
   29.2810   15.3470    6.3600 C   0  0  0  0  0  0  0  0  0  0  0  0
   29.5410   14.0430    6.7930 C   0  0  0  0  0  0  0  0  0  0  0  0
   28.8870   13.7490    8.0140 N   0  0  0  0  0  0  0  0  0  0  0  0
   28.5380   15.0980    8.5650 C   0  0  2  0  0  0  0  0  0  0  0  0
   27.1960   15.0620    9.3120 C   0  0  0  0  0  0  0  0  0  0  0  0
   26.4340   14.1050    9.1960 O   0  0  0  0  0  0  0  0  0  0  0  0
   27.0220   16.1730   10.1160 N   0  0  0  0  0  0  0  0  0  0  0  0
   25.9610   16.4690   10.9880 C   0  0  0  0  0  0  0  0  0  0  0  0
   24.6900   16.0170   10.6220 C   0  0  0  0  0  0  0  0  0  0  0  0
   23.5860   16.2740   11.4360 C   0  0  0  0  0  0  0  0  0  0  0  0
   23.7430   16.9880   12.6230 C   0  0  0  0  0  0  0  0  0  0  0  0
   25.0080   17.4550   13.0070 C   0  0  0  0  0  0  0  0  0  0  0  0
   25.1710   18.2270   14.3070 C   0  0  1  0  0  0  0  0  0  0  0  0
   26.2970   17.6280   15.1570 C   0  0  0  0  0  0  0  0  0  0  0  0
   26.4270   18.4020   16.4590 C   0  0  0  0  0  0  0  0  0  0  0  0
   26.6710   19.8670   16.1940 C   0  0  0  0  0  0  0  0  0  0  0  0
   27.1970   20.6040   17.0240 O   0  0  0  0  0  0  0  0  0  0  0  0
   26.2000   20.3600   15.0050 N   0  0  0  0  0  0  0  0  0  0  0  0
   25.3980   19.7230   14.0860 C   0  0  0  0  0  0  0  0  0  0  0  0
   24.8490   20.3760   13.2010 O   0  0  0  0  0  0  0  0  0  0  0  0
   26.1110   17.1890   12.1740 C   0  0  0  0  0  0  0  0  0  0  0  0
   28.4510   16.0670    7.3720 C   0  0  0  0  0  0  0  0  0  0  0  0
   28.9480    9.8160    7.7610 C   0  0  0  0  0  0  0  0  0  0  0  0
   27.6720    9.6460    8.0350 N   0  0  0  0  0  0  0  0  0  0  0  0
   24.7464    9.1845    8.6779 H   0  0  0  0  0  0  0  0  0  0  0  0
   23.8606    9.4192    7.1330 H   0  0  0  0  0  0  0  0  0  0  0  0
   25.4708    8.6230    7.1330 H   0  0  0  0  0  0  0  0  0  0  0  0
   25.1535   11.2135    6.4979 H   0  0  0  0  0  0  0  0  0  0  0  0
   25.2758   11.3721    8.3034 H   0  0  0  0  0  0  0  0  0  0  0  0
   27.6872   12.3207    6.0446 H   0  0  0  0  0  0  0  0  0  0  0  0
   31.3025   12.9628    4.0871 H   0  0  0  0  0  0  0  0  0  0  0  0
   30.8408   15.3053    3.3540 H   0  0  0  0  0  0  0  0  0  0  0  0
   29.5259   16.8504    4.8206 H   0  0  0  0  0  0  0  0  0  0  0  0
   28.6960   12.8248    8.4266 H   0  0  0  0  0  0  0  0  0  0  0  0
   29.3035   15.4211    9.2859 H   0  0  0  0  0  0  0  0  0  0  0  0
   27.7709   16.8786   10.0695 H   0  0  0  0  0  0  0  0  0  0  0  0
   24.5590   15.4547    9.6857 H   0  0  0  0  0  0  0  0  0  0  0  0
   22.5900   15.9125   11.1405 H   0  0  0  0  0  0  0  0  0  0  0  0
   22.8697   17.1861   13.2618 H   0  0  0  0  0  0  0  0  0  0  0  0
   24.2205   18.1292   14.8519 H   0  0  0  0  0  0  0  0  0  0  0  0
   26.0665   16.5756   15.3792 H   0  0  0  0  0  0  0  0  0  0  0  0
   27.2442   17.6906   14.6012 H   0  0  0  0  0  0  0  0  0  0  0  0
   25.4984   18.2908   17.0380 H   0  0  0  0  0  0  0  0  0  0  0  0
   27.2822   18.0001   17.0221 H   0  0  0  0  0  0  0  0  0  0  0  0
   26.4801   21.3232   14.7712 H   0  0  0  0  0  0  0  0  0  0  0  0
   27.1075   17.5546   12.4626 H   0  0  0  0  0  0  0  0  0  0  0  0
   27.4137   16.1927    7.0283 H   0  0  0  0  0  0  0  0  0  0  0  0
   28.7904   17.0898    7.5925 H   0  0  0  0  0  0  0  0  0  0  0  0
   29.7617    9.1835    8.1454 H   0  0  0  0  0  0  0  0  0  0  0  0
  1  2  1  0
  2  3  1  0
  3  4  2  0
  4  5  1  0
  5  6  1  0
  6  7  2  0
  6  8  2  0
  6  9  1  0
  9 10  2  0
 10 11  1  0
 11 12  2  0
 12 13  1  0
 13 14  2  0
 14 15  1  0
 15 16  1  0
 16 17  1  0
 17 18  2  0
 17 19  1  0
 19 20  1  0
 20 21  2  0
 21 22  1  0
 22 23  2  0
 23 24  1  0
 24 25  1  0
 25 26  1  0
 26 27  1  0
 27 28  1  0
 28 29  2  0
 28 30  1  0
 30 31  1  0
 31 32  2  0
 24 33  2  0
 16 34  1  0
  5 35  1  0
 35 36  2  0
 36  3  1  0
 14  9  1  0
 33 20  1  0
 34 13  1  0
 31 25  1  0
  1 37  1  0
  1 38  1  0
  1 39  1  0
  2 40  1  0
  2 41  1  0
  4 42  1  0
 10 43  1  0
 11 44  1  0
 12 45  1  0
 15 46  1  0
 16 47  1  1
 19 48  1  0
 21 49  1  0
 22 50  1  0
 23 51  1  0
 25 52  1  1
 26 53  1  0
 26 54  1  0
 27 55  1  0
 27 56  1  0
 30 57  1  0
 33 58  1  0
 34 59  1  0
 34 60  1  0
 35 61  1  0
M  END
>  <meeko>  (296) 
{"is_sidechain": [true], "free_energy": -13.26, "intermolecular_energy": 0.0, "internal_energy": -13.26, "cluster_size": 20, "cluster_id": 1, "rank_in_cluster": 1}

>  <_RMSD_MCS_to_ref>  (296) 
0.49408425394865535

$$$$
ligand
     RDKit          3D

 61 66  0  0  0  0  0  0  0  0999 V2000
   24.8540    9.4020    7.6050 C   0  0  0  0  0  0  0  0  0  0  0  0
   25.5230   10.7550    7.4270 C   0  0  0  0  0  0  0  0  0  0  0  0
   25.0650   11.4510    6.1950 C   0  0  0  0  0  0  0  0  0  0  0  0
   25.5950   12.5680    5.5790 C   0  0  0  0  0  0  0  0  0  0  0  0
   24.7770   12.7760    4.5040 N   0  0  0  0  0  0  0  0  0  0  0  0
   25.0060   13.9400    3.3170 S   0  0  0  0  0  6  0  0  0  0  0  0
   24.9470   13.1970    2.0700 O   0  0  0  0  0  0  0  0  0  0  0  0
   24.0800   15.0220    3.5870 O   0  0  0  0  0  0  0  0  0  0  0  0
   26.6510   14.5230    3.5320 C   0  0  0  0  0  0  0  0  0  0  0  0
   27.5850   14.1890    2.5650 C   0  0  0  0  0  0  0  0  0  0  0  0
   28.8740   14.6020    2.5940 N   0  0  0  0  0  0  0  0  0  0  0  0
   29.2420   15.4010    3.6170 C   0  0  0  0  0  0  0  0  0  0  0  0
   28.3760   15.8040    4.6160 C   0  0  0  0  0  0  0  0  0  0  0  0
   27.0480   15.3600    4.5780 C   0  0  0  0  0  0  0  0  0  0  0  0
   26.1610   15.7650    5.6360 C   0  0  0  0  0  0  0  0  0  0  0  0
   26.3690   15.6000    6.9830 C   0  0  0  0  0  0  0  0  0  0  0  0
   25.2700   16.1840    7.5750 N   0  0  0  0  0  0  0  0  0  0  0  0
   24.9650   16.3210    8.9530 C   0  0  0  0  0  0  0  0  0  0  0  0
   23.8610   15.6140    9.4940 C   0  0  0  0  0  0  0  0  0  0  0  0
   23.5200   15.7240   10.8490 C   0  0  0  0  0  0  0  0  0  0  0  0
   24.2970   16.5370   11.6510 C   0  0  0  0  0  0  0  0  0  0  0  0
   25.3810   17.2230   11.1120 C   0  0  0  0  0  0  0  0  0  0  0  0
   25.7410   17.1460    9.7780 C   0  0  0  0  0  0  0  0  0  0  0  0
   26.0110   17.9980   12.1860 C   0  0  0  0  0  0  0  0  0  0  0  0
   26.9400   18.7640   12.0240 O   0  0  0  0  0  0  0  0  0  0  0  0
   25.3330   17.6890   13.3550 N   0  0  0  0  0  0  0  0  0  0  0  0
   25.4880   18.4140   14.6120 C   0  0  1  0  0  0  0  0  0  0  0  0
   26.6290   17.8920   15.4870 C   0  0  0  0  0  0  0  0  0  0  0  0
   26.6620   18.6730   16.7900 C   0  0  0  0  0  0  0  0  0  0  0  0
   26.7990   20.1570   16.5380 C   0  0  0  0  0  0  0  0  0  0  0  0
   27.2610   20.9230   17.3780 O   0  0  0  0  0  0  0  0  0  0  0  0
   26.3040   20.6280   15.3480 N   0  0  0  0  0  0  0  0  0  0  0  0
   25.6440   19.9230   14.3670 C   0  0  0  0  0  0  0  0  0  0  0  0
   25.1310   20.5120   13.4180 O   0  0  0  0  0  0  0  0  0  0  0  0
   24.1610   16.8600   13.1010 C   0  0  0  0  0  0  0  0  0  0  0  0
   24.4330   16.6390    6.6070 N   0  0  0  0  0  0  0  0  0  0  0  0
   24.9720   16.3840    5.4240 N   0  0  0  0  0  0  0  0  0  0  0  0
   23.8330   11.8010    4.4660 C   0  0  0  0  0  0  0  0  0  0  0  0
   23.9750   10.9820    5.4890 N   0  0  0  0  0  0  0  0  0  0  0  0
   24.7464    9.1845    8.6779 H   0  0  0  0  0  0  0  0  0  0  0  0
   23.8606    9.4192    7.1330 H   0  0  0  0  0  0  0  0  0  0  0  0
   25.4708    8.6230    7.1330 H   0  0  0  0  0  0  0  0  0  0  0  0
   25.2868   11.3842    8.2978 H   0  0  0  0  0  0  0  0  0  0  0  0
   26.6063   10.5866    7.3365 H   0  0  0  0  0  0  0  0  0  0  0  0
   26.4737   13.1553    5.8837 H   0  0  0  0  0  0  0  0  0  0  0  0
   27.2616   13.5533    1.7276 H   0  0  0  0  0  0  0  0  0  0  0  0
   30.2845   15.7495    3.6581 H   0  0  0  0  0  0  0  0  0  0  0  0
   28.7234   16.4616    5.4264 H   0  0  0  0  0  0  0  0  0  0  0  0
   27.2211   15.1116    7.4783 H   0  0  0  0  0  0  0  0  0  0  0  0
   23.2608   14.9669    8.8375 H   0  0  0  0  0  0  0  0  0  0  0  0
   22.6585   15.1787   11.2618 H   0  0  0  0  0  0  0  0  0  0  0  0
   26.5996   17.7084    9.3822 H   0  0  0  0  0  0  0  0  0  0  0  0
   24.5598   18.2337   15.1740 H   0  0  0  0  0  0  0  0  0  0  0  0
   26.4683   16.8253   15.7022 H   0  0  0  0  0  0  0  0  0  0  0  0
   27.5854   18.0178   14.9583 H   0  0  0  0  0  0  0  0  0  0  0  0
   25.7288   18.4881   17.3422 H   0  0  0  0  0  0  0  0  0  0  0  0
   27.5325   18.3383   17.3732 H   0  0  0  0  0  0  0  0  0  0  0  0
   26.4434   21.6323   15.1665 H   0  0  0  0  0  0  0  0  0  0  0  0
   24.1802   15.9471   13.7144 H   0  0  0  0  0  0  0  0  0  0  0  0
   23.2119   17.3569   13.3508 H   0  0  0  0  0  0  0  0  0  0  0  0
   23.0585   11.7076    3.6905 H   0  0  0  0  0  0  0  0  0  0  0  0
  1  2  1  0
  2  3  1  0
  3  4  2  0
  4  5  1  0
  5  6  1  0
  6  7  2  0
  6  8  2  0
  6  9  1  0
  9 10  2  0
 10 11  1  0
 11 12  2  0
 12 13  1  0
 13 14  2  0
 14 15  1  0
 15 16  2  0
 16 17  1  0
 17 18  1  0
 18 19  2  0
 19 20  1  0
 20 21  2  0
 21 22  1  0
 22 23  2  0
 22 24  1  0
 24 25  2  0
 24 26  1  0
 26 27  1  0
 27 28  1  0
 28 29  1  0
 29 30  1  0
 30 31  2  0
 30 32  1  0
 32 33  1  0
 33 34  2  0
 26 35  1  0
 17 36  1  0
 36 37  2  0
  5 38  1  0
 38 39  2  0
 39  3  1  0
 14  9  1  0
 37 15  1  0
 23 18  1  0
 33 27  1  0
 35 21  1  0
  1 40  1  0
  1 41  1  0
  1 42  1  0
  2 43  1  0
  2 44  1  0
  4 45  1  0
 10 46  1  0
 12 47  1  0
 13 48  1  0
 16 49  1  0
 19 50  1  0
 20 51  1  0
 23 52  1  0
 27 53  1  1
 28 54  1  0
 28 55  1  0
 29 56  1  0
 29 57  1  0
 32 58  1  0
 35 59  1  0
 35 60  1  0
 38 61  1  0
M  END
>  <meeko>  (297) 
{"is_sidechain": [true], "free_energy": -13.26, "intermolecular_energy": 0.0, "internal_energy": -13.26, "cluster_size": 20, "cluster_id": 1, "rank_in_cluster": 1}

>  <_RMSD_MCS_to_ref>  (297) 
0.5256042025876282

$$$$
ligand
     RDKit          3D

 55 59  0  0  0  0  0  0  0  0999 V2000
   24.8710    9.6160    7.7820 C   0  0  0  0  0  0  0  0  0  0  0  0
   25.4240   10.9650    7.3490 C   0  0  0  0  0  0  0  0  0  0  0  0
   26.6010   11.3790    8.1600 C   0  0  0  0  0  0  0  0  0  0  0  0
   27.7280   12.0740    7.7670 C   0  0  0  0  0  0  0  0  0  0  0  0
   28.4910   12.1400    8.8990 N   0  0  0  0  0  0  0  0  0  0  0  0
   29.8790   13.0750    9.1100 S   0  0  0  0  0  6  0  0  0  0  0  0
   30.5590   13.0370    7.8250 O   0  0  0  0  0  0  0  0  0  0  0  0
   30.4980   12.5430   10.3090 O   0  0  0  0  0  0  0  0  0  0  0  0
   29.3680   14.6000    9.4170 O   0  0  0  0  0  0  0  0  0  0  0  0
   28.1050   15.0110    9.2770 C   0  0  0  0  0  0  0  0  0  0  0  0
   27.4630   15.4900    8.1550 C   0  0  0  0  0  0  0  0  0  0  0  0
   26.1370   15.8200    8.5230 C   0  0  0  0  0  0  0  0  0  0  0  0
   25.9870   15.5180    9.8610 C   0  0  0  0  0  0  0  0  0  0  0  0
   24.8550   15.6900   10.7520 C   0  0  0  0  0  0  0  0  0  0  0  0
   23.6340   15.0460   10.5000 C   0  0  0  0  0  0  0  0  0  0  0  0
   22.5490   15.1730   11.3880 C   0  0  0  0  0  0  0  0  0  0  0  0
   22.6670   15.9420   12.5470 C   0  0  0  0  0  0  0  0  0  0  0  0
   23.8760   16.5730   12.7680 C   0  0  0  0  0  0  0  0  0  0  0  0
   24.9580   16.4660   11.8960 C   0  0  0  0  0  0  0  0  0  0  0  0
   26.1130   17.2550   12.4170 C   0  0  0  0  0  0  0  0  0  0  0  0
   25.5720   17.8510   13.6320 N   0  0  0  0  0  0  0  0  0  0  0  0
   26.3950   18.4980   14.6450 C   0  0  2  0  0  0  0  0  0  0  0  0
   26.1090   17.9800   16.0510 C   0  0  0  0  0  0  0  0  0  0  0  0
   27.0630   18.6420   17.0370 C   0  0  0  0  0  0  0  0  0  0  0  0
   26.9780   20.1470   16.9430 C   0  0  0  0  0  0  0  0  0  0  0  0
   27.0070   20.8730   17.9310 O   0  0  0  0  0  0  0  0  0  0  0  0
   26.8630   20.6760   15.6830 N   0  0  0  0  0  0  0  0  0  0  0  0
   26.2320   20.0280   14.6460 C   0  0  0  0  0  0  0  0  0  0  0  0
   25.5650   20.6620   13.8320 O   0  0  0  0  0  0  0  0  0  0  0  0
   24.2830   17.4140   13.8990 C   0  0  0  0  0  0  0  0  0  0  0  0
   23.6000   17.6520   14.8760 O   0  0  0  0  0  0  0  0  0  0  0  0
   27.1760   14.9800   10.2910 N   0  0  0  0  0  0  0  0  0  0  0  0
   27.8090   11.5790    9.9280 C   0  0  0  0  0  0  0  0  0  0  0  0
   26.6620   11.0870    9.5080 N   0  0  0  0  0  0  0  0  0  0  0  0
   24.8497    9.5640    8.8806 H   0  0  0  0  0  0  0  0  0  0  0  0
   23.8507    9.4948    7.3893 H   0  0  0  0  0  0  0  0  0  0  0  0
   25.5127    8.8135    7.3893 H   0  0  0  0  0  0  0  0  0  0  0  0
   25.7265   10.9011    6.2934 H   0  0  0  0  0  0  0  0  0  0  0  0
   24.6334   11.7157    7.4953 H   0  0  0  0  0  0  0  0  0  0  0  0
   27.9586   12.4810    6.7714 H   0  0  0  0  0  0  0  0  0  0  0  0
   27.9030   15.5967    7.1525 H   0  0  0  0  0  0  0  0  0  0  0  0
   25.3653   16.2412    7.8619 H   0  0  0  0  0  0  0  0  0  0  0  0
   23.5228   14.4321    9.5941 H   0  0  0  0  0  0  0  0  0  0  0  0
   21.6004   14.6620   11.1667 H   0  0  0  0  0  0  0  0  0  0  0  0
   21.8314   16.0415   13.2555 H   0  0  0  0  0  0  0  0  0  0  0  0
   26.9695   16.6026   12.6426 H   0  0  0  0  0  0  0  0  0  0  0  0
   26.4942   17.9965   11.6995 H   0  0  0  0  0  0  0  0  0  0  0  0
   27.4297   18.2441   14.3714 H   0  0  0  0  0  0  0  0  0  0  0  0
   25.0714   18.2198   16.3266 H   0  0  0  0  0  0  0  0  0  0  0  0
   26.2513   16.8896   16.0772 H   0  0  0  0  0  0  0  0  0  0  0  0
   26.7991   18.3296   18.0582 H   0  0  0  0  0  0  0  0  0  0  0  0
   28.0901   18.3325   16.7933 H   0  0  0  0  0  0  0  0  0  0  0  0
   27.2695   21.6053   15.5038 H   0  0  0  0  0  0  0  0  0  0  0  0
   27.3469   14.6074   11.2359 H   0  0  0  0  0  0  0  0  0  0  0  0
   28.1643   11.5403   10.9683 H   0  0  0  0  0  0  0  0  0  0  0  0
  1  2  1  0
  2  3  1  0
  3  4  2  0
  4  5  1  0
  5  6  1  0
  6  7  2  0
  6  8  2  0
  6  9  1  0
  9 10  1  0
 10 11  2  0
 11 12  1  0
 12 13  2  0
 13 14  1  0
 14 15  2  0
 15 16  1  0
 16 17  2  0
 17 18  1  0
 18 19  2  0
 19 20  1  0
 20 21  1  0
 21 22  1  0
 22 23  1  0
 23 24  1  0
 24 25  1  0
 25 26  2  0
 25 27  1  0
 27 28  1  0
 28 29  2  0
 21 30  1  0
 30 31  2  0
 13 32  1  0
  5 33  1  0
 33 34  2  0
 34  3  1  0
 32 10  1  0
 19 14  1  0
 28 22  1  0
 30 18  1  0
  1 35  1  0
  1 36  1  0
  1 37  1  0
  2 38  1  0
  2 39  1  0
  4 40  1  0
 11 41  1  0
 12 42  1  0
 15 43  1  0
 16 44  1  0
 17 45  1  0
 20 46  1  0
 20 47  1  0
 22 48  1  6
 23 49  1  0
 23 50  1  0
 24 51  1  0
 24 52  1  0
 27 53  1  0
 32 54  1  0
 33 55  1  0
M  END
>  <meeko>  (298) 
{"is_sidechain": [true], "free_energy": -13.26, "intermolecular_energy": 0.0, "internal_energy": -13.26, "cluster_size": 10, "cluster_id": 1, "rank_in_cluster": 1}

>  <_RMSD_MCS_to_ref>  (298) 
1.4654392780930154

$$$$
ligand
     RDKit          3D

 62 67  0  0  0  0  0  0  0  0999 V2000
   24.8540    9.4020    7.6050 C   0  0  0  0  0  0  0  0  0  0  0  0
   25.5230   10.7550    7.4270 C   0  0  0  0  0  0  0  0  0  0  0  0
   25.0410   11.4660    6.2110 C   0  0  0  0  0  0  0  0  0  0  0  0
   25.3490   12.7350    5.7670 C   0  0  0  0  0  0  0  0  0  0  0  0
   24.6630   12.8550    4.5920 N   0  0  0  0  0  0  0  0  0  0  0  0
   24.4980   14.2600    3.6740 S   0  0  0  0  0  6  0  0  0  0  0  0
   23.4110   13.9710    2.7550 O   0  0  0  0  0  0  0  0  0  0  0  0
   25.8380   14.5430    3.1910 O   0  0  0  0  0  0  0  0  0  0  0  0
   24.0490   15.4270    4.7240 O   0  0  0  0  0  0  0  0  0  0  0  0
   24.9860   16.1600    5.3920 C   0  0  0  0  0  0  0  0  0  0  0  0
   25.9930   16.8960    4.8030 C   0  0  0  0  0  0  0  0  0  0  0  0
   26.9270   17.5780    5.5080 N   0  0  0  0  0  0  0  0  0  0  0  0
   26.8730   17.5490    6.8520 C   0  0  0  0  0  0  0  0  0  0  0  0
   27.8300   18.2530    7.5660 C   0  0  0  0  0  0  0  0  0  0  0  0
   27.8320   18.2890    8.9610 C   0  0  0  0  0  0  0  0  0  0  0  0
   26.8420   17.6200    9.6710 C   0  0  0  0  0  0  0  0  0  0  0  0
   25.8480   16.8980    8.9930 C   0  0  0  0  0  0  0  0  0  0  0  0
   24.7660   16.2720    9.7710 C   0  0  0  0  0  0  0  0  0  0  0  0
   23.7660   15.4970    9.1540 C   0  0  0  0  0  0  0  0  0  0  0  0
   22.6700   14.9940    9.8830 C   0  0  0  0  0  0  0  0  0  0  0  0
   22.5350   15.2680   11.2440 C   0  0  0  0  0  0  0  0  0  0  0  0
   23.5340   16.0110   11.8420 C   0  0  0  0  0  0  0  0  0  0  0  0
   24.6460   16.4780   11.1430 C   0  0  0  0  0  0  0  0  0  0  0  0
   25.5450   17.2240   12.0700 C   0  0  0  0  0  0  0  0  0  0  0  0
   24.7860   17.2580   13.3120 N   0  0  0  0  0  0  0  0  0  0  0  0
   24.9520   18.3400   14.2810 C   0  0  1  0  0  0  0  0  0  0  0  0
   25.5220   17.8250   15.6000 C   0  0  0  0  0  0  0  0  0  0  0  0
   25.7330   18.9890   16.5530 C   0  0  0  0  0  0  0  0  0  0  0  0
   26.6770   20.0010   15.9530 C   0  0  0  0  0  0  0  0  0  0  0  0
   27.4590   20.6540   16.6360 O   0  0  0  0  0  0  0  0  0  0  0  0
   26.5860   20.1820   14.5960 N   0  0  0  0  0  0  0  0  0  0  0  0
   25.8640   19.4390   13.6910 C   0  0  0  0  0  0  0  0  0  0  0  0
   25.9600   19.6730   12.4850 O   0  0  0  0  0  0  0  0  0  0  0  0
   23.5910   16.5560   13.2050 C   0  0  0  0  0  0  0  0  0  0  0  0
   22.7100   16.4480   14.0360 O   0  0  0  0  0  0  0  0  0  0  0  0
   25.8810   16.8390    7.5630 C   0  0  0  0  0  0  0  0  0  0  0  0
   24.9550   16.1080    6.7800 C   0  0  0  0  0  0  0  0  0  0  0  0
   23.9100   11.7400    4.4010 C   0  0  0  0  0  0  0  0  0  0  0  0
   24.1440   10.8610    5.3530 N   0  0  0  0  0  0  0  0  0  0  0  0
   24.7464    9.1845    8.6779 H   0  0  0  0  0  0  0  0  0  0  0  0
   23.8606    9.4192    7.1330 H   0  0  0  0  0  0  0  0  0  0  0  0
   25.4708    8.6230    7.1330 H   0  0  0  0  0  0  0  0  0  0  0  0
   25.3069   11.3757    8.3091 H   0  0  0  0  0  0  0  0  0  0  0  0
   26.6036   10.5845    7.3120 H   0  0  0  0  0  0  0  0  0  0  0  0
   25.9987   13.4803    6.2491 H   0  0  0  0  0  0  0  0  0  0  0  0
   26.0399   16.9308    3.7046 H   0  0  0  0  0  0  0  0  0  0  0  0
   28.6109   18.7994    7.0168 H   0  0  0  0  0  0  0  0  0  0  0  0
   28.6149   18.8453    9.4972 H   0  0  0  0  0  0  0  0  0  0  0  0
   26.8377   17.6567   10.7704 H   0  0  0  0  0  0  0  0  0  0  0  0
   23.8418   15.2791    8.0785 H   0  0  0  0  0  0  0  0  0  0  0  0
   21.9133   14.3791    9.3737 H   0  0  0  0  0  0  0  0  0  0  0  0
   21.6685   14.9071   11.8175 H   0  0  0  0  0  0  0  0  0  0  0  0
   26.4996   16.6945   12.2052 H   0  0  0  0  0  0  0  0  0  0  0  0
   25.8126   18.2247   11.6999 H   0  0  0  0  0  0  0  0  0  0  0  0
   23.9605   18.7672   14.4916 H   0  0  0  0  0  0  0  0  0  0  0  0
   24.8181   17.1081   16.0479 H   0  0  0  0  0  0  0  0  0  0  0  0
   26.4849   17.3274   15.4123 H   0  0  0  0  0  0  0  0  0  0  0  0
   24.7653   19.4718   16.7540 H   0  0  0  0  0  0  0  0  0  0  0  0
   26.1690   18.6076   17.4881 H   0  0  0  0  0  0  0  0  0  0  0  0
   27.1237   20.9700   14.2077 H   0  0  0  0  0  0  0  0  0  0  0  0
   24.1969   15.4873    7.2800 H   0  0  0  0  0  0  0  0  0  0  0  0
   23.2052   11.5927    3.5694 H   0  0  0  0  0  0  0  0  0  0  0  0
  1  2  1  0
  2  3  1  0
  3  4  2  0
  4  5  1  0
  5  6  1  0
  6  7  2  0
  6  8  2  0
  6  9  1  0
  9 10  1  0
 10 11  2  0
 11 12  1  0
 12 13  2  0
 13 14  1  0
 14 15  2  0
 15 16  1  0
 16 17  2  0
 17 18  1  0
 18 19  2  0
 19 20  1  0
 20 21  2  0
 21 22  1  0
 22 23  2  0
 23 24  1  0
 24 25  1  0
 25 26  1  0
 26 27  1  0
 27 28  1  0
 28 29  1  0
 29 30  2  0
 29 31  1  0
 31 32  1  0
 32 33  2  0
 25 34  1  0
 34 35  2  0
 17 36  1  0
 36 37  2  0
  5 38  1  0
 38 39  2  0
 39  3  1  0
 37 10  1  0
 36 13  1  0
 23 18  1  0
 32 26  1  0
 34 22  1  0
  1 40  1  0
  1 41  1  0
  1 42  1  0
  2 43  1  0
  2 44  1  0
  4 45  1  0
 11 46  1  0
 14 47  1  0
 15 48  1  0
 16 49  1  0
 19 50  1  0
 20 51  1  0
 21 52  1  0
 24 53  1  0
 24 54  1  0
 26 55  1  1
 27 56  1  0
 27 57  1  0
 28 58  1  0
 28 59  1  0
 31 60  1  0
 37 61  1  0
 38 62  1  0
M  END
>  <meeko>  (299) 
{"is_sidechain": [true], "free_energy": -13.25, "intermolecular_energy": 0.0, "internal_energy": -13.25, "cluster_size": 6, "cluster_id": 1, "rank_in_cluster": 1}

>  <_RMSD_MCS_to_ref>  (299) 
0.9873436866438939

$$$$
ligand
     RDKit          3D

 61 66  0  0  0  0  0  0  0  0999 V2000
   24.8540    9.4020    7.6050 C   0  0  0  0  0  0  0  0  0  0  0  0
   25.5230   10.7550    7.4270 C   0  0  0  0  0  0  0  0  0  0  0  0
   25.1670   11.3910    6.1300 C   0  0  0  0  0  0  0  0  0  0  0  0
   25.8790   12.3130    5.3890 C   0  0  0  0  0  0  0  0  0  0  0  0
   25.0940   12.5380    4.2930 N   0  0  0  0  0  0  0  0  0  0  0  0
   25.4680   13.5860    3.0270 S   0  0  0  0  0  6  0  0  0  0  0  0
   24.2830   13.6700    2.1920 O   0  0  0  0  0  0  0  0  0  0  0  0
   26.7000   13.0370    2.4840 O   0  0  0  0  0  0  0  0  0  0  0  0
   25.8320   15.0520    3.6320 O   0  0  0  0  0  0  0  0  0  0  0  0
   25.9050   15.2380    4.9880 C   0  0  0  0  0  0  0  0  0  0  0  0
   24.7220   15.2170    5.6910 C   0  0  0  0  0  0  0  0  0  0  0  0
   24.7860   15.4260    7.0600 C   0  0  0  0  0  0  0  0  0  0  0  0
   26.0320   15.6560    7.6860 C   0  0  0  0  0  0  0  0  0  0  0  0
   26.2000   15.8650    9.0820 C   0  0  0  0  0  0  0  0  0  0  0  0
   25.0780   15.8330   10.0280 C   0  0  0  0  0  0  0  0  0  0  0  0
   23.9410   15.0390    9.7780 C   0  0  0  0  0  0  0  0  0  0  0  0
   22.8640   14.9860   10.6840 C   0  0  0  0  0  0  0  0  0  0  0  0
   22.8950   15.7250   11.8650 C   0  0  0  0  0  0  0  0  0  0  0  0
   24.0100   16.5060   12.0920 C   0  0  0  0  0  0  0  0  0  0  0  0
   25.0850   16.5750   11.2050 C   0  0  0  0  0  0  0  0  0  0  0  0
   26.1330   17.4910   11.7520 C   0  0  0  0  0  0  0  0  0  0  0  0
   25.5250   17.9780   12.9830 N   0  0  0  0  0  0  0  0  0  0  0  0
   26.2760   18.6660   14.0270 C   0  0  2  0  0  0  0  0  0  0  0  0
   26.1700   17.9700   15.3800 C   0  0  0  0  0  0  0  0  0  0  0  0
   27.0510   18.6930   16.3880 C   0  0  0  0  0  0  0  0  0  0  0  0
   26.6970   20.1600   16.4740 C   0  0  0  0  0  0  0  0  0  0  0  0
   26.7640   20.7910   17.5240 O   0  0  0  0  0  0  0  0  0  0  0  0
   26.3120   20.7690   15.3070 N   0  0  0  0  0  0  0  0  0  0  0  0
   25.8340   20.1310   14.1850 C   0  0  0  0  0  0  0  0  0  0  0  0
   25.1010   20.7250   13.3970 O   0  0  0  0  0  0  0  0  0  0  0  0
   24.3120   17.3590   13.2470 C   0  0  0  0  0  0  0  0  0  0  0  0
   23.6130   17.4710   14.2350 O   0  0  0  0  0  0  0  0  0  0  0  0
   27.4850   16.1000    9.5720 C   0  0  0  0  0  0  0  0  0  0  0  0
   28.5340   16.1070    8.6790 C   0  0  0  0  0  0  0  0  0  0  0  0
   28.3880   15.8940    7.3580 N   0  0  0  0  0  0  0  0  0  0  0  0
   27.1750   15.6780    6.8620 C   0  0  0  0  0  0  0  0  0  0  0  0
   27.0990   15.4800    5.5470 N   0  0  0  0  0  0  0  0  0  0  0  0
   23.9540   11.8110    4.4020 C   0  0  0  0  0  0  0  0  0  0  0  0
   23.9770   11.0800    5.5010 N   0  0  0  0  0  0  0  0  0  0  0  0
   24.7464    9.1845    8.6779 H   0  0  0  0  0  0  0  0  0  0  0  0
   23.8606    9.4192    7.1330 H   0  0  0  0  0  0  0  0  0  0  0  0
   25.4708    8.6230    7.1330 H   0  0  0  0  0  0  0  0  0  0  0  0
   25.2056   11.4177    8.2456 H   0  0  0  0  0  0  0  0  0  0  0  0
   26.6117   10.5979    7.4388 H   0  0  0  0  0  0  0  0  0  0  0  0
   26.8542   12.7632    5.6262 H   0  0  0  0  0  0  0  0  0  0  0  0
   23.7611   15.0409    5.1853 H   0  0  0  0  0  0  0  0  0  0  0  0
   23.8645   15.4128    7.6606 H   0  0  0  0  0  0  0  0  0  0  0  0
   23.8935   14.4461    8.8527 H   0  0  0  0  0  0  0  0  0  0  0  0
   21.9912   14.3561   10.4575 H   0  0  0  0  0  0  0  0  0  0  0  0
   22.0653   15.6874   12.5863 H   0  0  0  0  0  0  0  0  0  0  0  0
   27.0661   16.9466   11.9593 H   0  0  0  0  0  0  0  0  0  0  0  0
   26.4139   18.2959   11.0568 H   0  0  0  0  0  0  0  0  0  0  0  0
   27.3250   18.6368   13.6973 H   0  0  0  0  0  0  0  0  0  0  0  0
   25.1252   17.9913   15.7233 H   0  0  0  0  0  0  0  0  0  0  0  0
   26.5010   16.9254   15.2839 H   0  0  0  0  0  0  0  0  0  0  0  0
   26.9149   18.2329   17.3778 H   0  0  0  0  0  0  0  0  0  0  0  0
   28.0972   18.6069   16.0594 H   0  0  0  0  0  0  0  0  0  0  0  0
   26.3873   21.7955   15.2666 H   0  0  0  0  0  0  0  0  0  0  0  0
   27.6562   16.2753   10.6444 H   0  0  0  0  0  0  0  0  0  0  0  0
   29.5458   16.2970    9.0666 H   0  0  0  0  0  0  0  0  0  0  0  0
   23.1270   11.8282    3.6769 H   0  0  0  0  0  0  0  0  0  0  0  0
  1  2  1  0
  2  3  1  0
  3  4  2  0
  4  5  1  0
  5  6  1  0
  6  7  2  0
  6  8  2  0
  6  9  1  0
  9 10  1  0
 10 11  2  0
 11 12  1  0
 12 13  2  0
 13 14  1  0
 14 15  1  0
 15 16  2  0
 16 17  1  0
 17 18  2  0
 18 19  1  0
 19 20  2  0
 20 21  1  0
 21 22  1  0
 22 23  1  0
 23 24  1  0
 24 25  1  0
 25 26  1  0
 26 27  2  0
 26 28  1  0
 28 29  1  0
 29 30  2  0
 22 31  1  0
 31 32  2  0
 14 33  2  0
 33 34  1  0
 34 35  2  0
 35 36  1  0
 36 37  2  0
  5 38  1  0
 38 39  2  0
 39  3  1  0
 37 10  1  0
 36 13  1  0
 20 15  1  0
 29 23  1  0
 31 19  1  0
  1 40  1  0
  1 41  1  0
  1 42  1  0
  2 43  1  0
  2 44  1  0
  4 45  1  0
 11 46  1  0
 12 47  1  0
 16 48  1  0
 17 49  1  0
 18 50  1  0
 21 51  1  0
 21 52  1  0
 23 53  1  6
 24 54  1  0
 24 55  1  0
 25 56  1  0
 25 57  1  0
 28 58  1  0
 33 59  1  0
 34 60  1  0
 38 61  1  0
M  END
>  <meeko>  (300) 
{"is_sidechain": [true], "free_energy": -13.25, "intermolecular_energy": 0.0, "internal_energy": -13.25, "cluster_size": 3, "cluster_id": 2, "rank_in_cluster": 1}

>  <_RMSD_MCS_to_ref>  (300) 
0.8171117834584598

$$$$
ligand
     RDKit          3D

 60 65  0  0  0  0  0  0  0  0999 V2000
   24.8540    9.4020    7.6050 C   0  0  0  0  0  0  0  0  0  0  0  0
   25.5230   10.7550    7.4270 C   0  0  0  0  0  0  0  0  0  0  0  0
   25.2750   11.3340    6.0780 C   0  0  0  0  0  0  0  0  0  0  0  0
   26.1660   11.9390    5.2150 C   0  0  0  0  0  0  0  0  0  0  0  0
   25.4120   12.2510    4.1190 N   0  0  0  0  0  0  0  0  0  0  0  0
   25.9000   13.2230    2.8310 S   0  0  0  0  0  6  0  0  0  0  0  0
   24.8290   13.1020    1.8590 O   0  0  0  0  0  0  0  0  0  0  0  0
   27.2500   12.7810    2.5340 O   0  0  0  0  0  0  0  0  0  0  0  0
   25.9370   14.7390    3.4160 O   0  0  0  0  0  0  0  0  0  0  0  0
   25.8550   15.0600    4.7220 C   0  0  0  0  0  0  0  0  0  0  0  0
   24.6550   15.4980    5.2290 C   0  0  0  0  0  0  0  0  0  0  0  0
   24.8360   15.7670    6.5560 N   0  0  0  0  0  0  0  0  0  0  0  0
   26.1330   15.4860    6.9320 C   0  0  0  0  0  0  0  0  0  0  0  0
   26.7560   15.6010    8.1820 C   0  0  0  0  0  0  0  0  0  0  0  0
   26.0790   16.0350    9.4070 C   0  0  0  0  0  0  0  0  0  0  0  0
   24.7620   15.6040    9.7140 C   0  0  0  0  0  0  0  0  0  0  0  0
   24.1070   16.0200   10.8790 C   0  0  0  0  0  0  0  0  0  0  0  0
   24.7960   16.8610   11.7280 C   0  0  0  0  0  0  0  0  0  0  0  0
   26.0960   17.2850   11.4720 C   0  0  0  0  0  0  0  0  0  0  0  0
   26.7490   16.8770   10.3200 C   0  0  0  0  0  0  0  0  0  0  0  0
   26.5840   18.1390   12.5930 C   0  0  0  0  0  0  0  0  0  0  0  0
   25.4010   18.2670   13.4340 N   0  0  0  0  0  0  0  0  0  0  0  0
   25.4790   18.8600   14.7650 C   0  0  1  0  0  0  0  0  0  0  0  0
   26.5370   18.2200   15.6630 C   0  0  0  0  0  0  0  0  0  0  0  0
   26.4890   18.8670   17.0380 C   0  0  0  0  0  0  0  0  0  0  0  0
   26.6810   20.3630   16.9460 C   0  0  0  0  0  0  0  0  0  0  0  0
   27.0930   21.0280   17.8930 O   0  0  0  0  0  0  0  0  0  0  0  0
   26.2920   20.9640   15.7750 N   0  0  0  0  0  0  0  0  0  0  0  0
   25.6850   20.3800   14.6870 C   0  0  0  0  0  0  0  0  0  0  0  0
   25.2520   21.0790   13.7710 O   0  0  0  0  0  0  0  0  0  0  0  0
   24.3690   17.4440   13.0040 C   0  0  0  0  0  0  0  0  0  0  0  0
   23.3080   17.2120   13.5470 O   0  0  0  0  0  0  0  0  0  0  0  0
   28.0830   15.3230    8.2670 N   0  0  0  0  0  0  0  0  0  0  0  0
   28.7450   14.9050    7.1710 C   0  0  0  0  0  0  0  0  0  0  0  0
   28.1760   14.7450    5.9170 C   0  0  0  0  0  0  0  0  0  0  0  0
   26.8130   15.0570    5.7820 C   0  0  0  0  0  0  0  0  0  0  0  0
   24.1180   11.9190    4.3620 C   0  0  0  0  0  0  0  0  0  0  0  0
   24.0040   11.3350    5.5360 N   0  0  0  0  0  0  0  0  0  0  0  0
   24.7464    9.1845    8.6779 H   0  0  0  0  0  0  0  0  0  0  0  0
   23.8606    9.4192    7.1330 H   0  0  0  0  0  0  0  0  0  0  0  0
   25.4708    8.6230    7.1330 H   0  0  0  0  0  0  0  0  0  0  0  0
   25.1301   11.4467    8.1867 H   0  0  0  0  0  0  0  0  0  0  0  0
   26.6080   10.6115    7.5377 H   0  0  0  0  0  0  0  0  0  0  0  0
   27.2382   12.1271    5.3733 H   0  0  0  0  0  0  0  0  0  0  0  0
   23.7165   15.6116    4.6667 H   0  0  0  0  0  0  0  0  0  0  0  0
   24.1066   16.1287    7.1870 H   0  0  0  0  0  0  0  0  0  0  0  0
   24.2435   14.9266    9.0196 H   0  0  0  0  0  0  0  0  0  0  0  0
   23.0833   15.6893   11.1084 H   0  0  0  0  0  0  0  0  0  0  0  0
   27.7792   17.2061   10.1192 H   0  0  0  0  0  0  0  0  0  0  0  0
   27.4061   17.6498   13.1360 H   0  0  0  0  0  0  0  0  0  0  0  0
   26.9913   19.1054   12.2612 H   0  0  0  0  0  0  0  0  0  0  0  0
   24.5071   18.6532   15.2369 H   0  0  0  0  0  0  0  0  0  0  0  0
   26.3360   17.1426   15.7569 H   0  0  0  0  0  0  0  0  0  0  0  0
   27.5333   18.3685   15.2211 H   0  0  0  0  0  0  0  0  0  0  0  0
   25.5121   18.6585   17.4986 H   0  0  0  0  0  0  0  0  0  0  0  0
   27.3031   18.4486   17.6480 H   0  0  0  0  0  0  0  0  0  0  0  0
   26.4769   21.9746   15.7018 H   0  0  0  0  0  0  0  0  0  0  0  0
   29.8150   14.6738    7.2788 H   0  0  0  0  0  0  0  0  0  0  0  0
   28.7683   14.3879    5.0616 H   0  0  0  0  0  0  0  0  0  0  0  0
   23.2817   12.1113    3.6738 H   0  0  0  0  0  0  0  0  0  0  0  0
  1  2  1  0
  2  3  1  0
  3  4  2  0
  4  5  1  0
  5  6  1  0
  6  7  2  0
  6  8  2  0
  6  9  1  0
  9 10  1  0
 10 11  2  0
 11 12  1  0
 12 13  1  0
 13 14  2  0
 14 15  1  0
 15 16  2  0
 16 17  1  0
 17 18  2  0
 18 19  1  0
 19 20  2  0
 19 21  1  0
 21 22  1  0
 22 23  1  0
 23 24  1  0
 24 25  1  0
 25 26  1  0
 26 27  2  0
 26 28  1  0
 28 29  1  0
 29 30  2  0
 22 31  1  0
 31 32  2  0
 14 33  1  0
 33 34  2  0
 34 35  1  0
 35 36  2  0
  5 37  1  0
 37 38  2  0
 38  3  1  0
 36 10  1  0
 36 13  1  0
 20 15  1  0
 29 23  1  0
 31 18  1  0
  1 39  1  0
  1 40  1  0
  1 41  1  0
  2 42  1  0
  2 43  1  0
  4 44  1  0
 11 45  1  0
 12 46  1  0
 16 47  1  0
 17 48  1  0
 20 49  1  0
 21 50  1  0
 21 51  1  0
 23 52  1  1
 24 53  1  0
 24 54  1  0
 25 55  1  0
 25 56  1  0
 28 57  1  0
 34 58  1  0
 35 59  1  0
 37 60  1  0
M  END
>  <meeko>  (301) 
{"is_sidechain": [true], "free_energy": -13.24, "intermolecular_energy": 0.0, "internal_energy": -13.24, "cluster_size": 4, "cluster_id": 2, "rank_in_cluster": 1}

>  <_RMSD_MCS_to_ref>  (301) 
0.770833603603555

$$$$
ligand
     RDKit          3D

 61 65  0  0  0  0  0  0  0  0999 V2000
   24.8540    9.4020    7.6050 C   0  0  0  0  0  0  0  0  0  0  0  0
   25.5230   10.7550    7.4270 C   0  0  0  0  0  0  0  0  0  0  0  0
   27.0090   10.6540    7.4450 C   0  0  0  0  0  0  0  0  0  0  0  0
   27.9450   11.6560    7.6030 C   0  0  0  0  0  0  0  0  0  0  0  0
   29.1440   11.0010    7.5590 N   0  0  0  0  0  0  0  0  0  0  0  0
   30.6590   11.7260    7.5620 S   0  0  0  0  0  6  0  0  0  0  0  0
   31.5840   10.6100    7.5100 O   0  0  0  0  0  0  0  0  0  0  0  0
   30.6050   12.7400    6.5270 O   0  0  0  0  0  0  0  0  0  0  0  0
   30.8600   12.5610    9.1240 C   0  0  0  0  0  0  0  0  0  0  0  0
   31.5760   11.9470   10.1640 C   0  0  0  0  0  0  0  0  0  0  0  0
   31.7330   12.5960   11.3890 C   0  0  0  0  0  0  0  0  0  0  0  0
   31.1800   13.8550   11.5890 C   0  0  0  0  0  0  0  0  0  0  0  0
   30.4620   14.4690   10.5630 C   0  0  0  0  0  0  0  0  0  0  0  0
   30.2780   13.8350    9.3180 C   0  0  0  0  0  0  0  0  0  0  0  0
   29.5040   14.5870    8.2540 C   0  0  0  0  0  0  0  0  0  0  0  0
   28.1050   14.7870    8.6500 C   0  0  0  0  0  0  0  0  0  0  0  0
   26.9830   14.9740    9.0370 C   0  0  0  0  0  0  0  0  0  0  0  0
   25.6920   15.2250    9.5950 C   0  0  0  0  0  0  0  0  0  0  0  0
   24.5390   14.6530    9.0440 C   0  0  0  0  0  0  0  0  0  0  0  0
   23.2740   14.8820    9.6200 C   0  0  0  0  0  0  0  0  0  0  0  0
   23.1440   15.6840   10.7560 C   0  0  0  0  0  0  0  0  0  0  0  0
   24.2990   16.2400   11.2760 C   0  0  0  0  0  0  0  0  0  0  0  0
   25.5560   16.0270   10.7130 C   0  0  0  0  0  0  0  0  0  0  0  0
   26.5970   16.7450   11.5040 C   0  0  0  0  0  0  0  0  0  0  0  0
   25.8100   17.4380   12.5160 N   0  0  0  0  0  0  0  0  0  0  0  0
   26.4030   18.0860   13.6780 C   0  0  2  0  0  0  0  0  0  0  0  0
   25.9600   17.4500   14.9920 C   0  0  0  0  0  0  0  0  0  0  0  0
   26.6770   18.1240   16.1530 C   0  0  0  0  0  0  0  0  0  0  0  0
   26.4560   19.6190   16.1340 C   0  0  0  0  0  0  0  0  0  0  0  0
   26.2990   20.2770   17.1560 O   0  0  0  0  0  0  0  0  0  0  0  0
   26.4490   20.2200   14.9020 N   0  0  0  0  0  0  0  0  0  0  0  0
   26.0900   19.5920   13.7320 C   0  0  0  0  0  0  0  0  0  0  0  0
   25.5400   20.2280   12.8360 O   0  0  0  0  0  0  0  0  0  0  0  0
   24.4660   17.1000   12.4530 C   0  0  0  0  0  0  0  0  0  0  0  0
   23.5750   17.4300   13.2120 O   0  0  0  0  0  0  0  0  0  0  0  0
   28.9260    9.6780    7.3480 C   0  0  0  0  0  0  0  0  0  0  0  0
   27.6340    9.4340    7.2690 N   0  0  0  0  0  0  0  0  0  0  0  0
   24.7464    9.1845    8.6779 H   0  0  0  0  0  0  0  0  0  0  0  0
   23.8606    9.4192    7.1330 H   0  0  0  0  0  0  0  0  0  0  0  0
   25.4708    8.6230    7.1330 H   0  0  0  0  0  0  0  0  0  0  0  0
   25.2085   11.1818    6.4632 H   0  0  0  0  0  0  0  0  0  0  0  0
   25.2177   11.3961    8.2671 H   0  0  0  0  0  0  0  0  0  0  0  0
   27.7671   12.7336    7.7341 H   0  0  0  0  0  0  0  0  0  0  0  0
   32.0151   10.9499   10.0123 H   0  0  0  0  0  0  0  0  0  0  0  0
   32.2963   12.1096   12.1990 H   0  0  0  0  0  0  0  0  0  0  0  0
   31.3082   14.3663   12.5545 H   0  0  0  0  0  0  0  0  0  0  0  0
   30.0310   15.4674   10.7288 H   0  0  0  0  0  0  0  0  0  0  0  0
   29.9748   15.5684    8.0954 H   0  0  0  0  0  0  0  0  0  0  0  0
   29.5202   13.9921    7.3289 H   0  0  0  0  0  0  0  0  0  0  0  0
   24.6219   14.0170    8.1504 H   0  0  0  0  0  0  0  0  0  0  0  0
   22.3801   14.4248    9.1708 H   0  0  0  0  0  0  0  0  0  0  0  0
   22.1628   15.8662   11.2186 H   0  0  0  0  0  0  0  0  0  0  0  0
   27.3022   16.0380   11.9655 H   0  0  0  0  0  0  0  0  0  0  0  0
   27.2181   17.4198   10.8967 H   0  0  0  0  0  0  0  0  0  0  0  0
   27.4875   17.9455   13.5592 H   0  0  0  0  0  0  0  0  0  0  0  0
   24.8735   17.5744   15.1109 H   0  0  0  0  0  0  0  0  0  0  0  0
   26.2091   16.3786   14.9814 H   0  0  0  0  0  0  0  0  0  0  0  0
   26.2918   17.7158   17.0990 H   0  0  0  0  0  0  0  0  0  0  0  0
   27.7554   17.9287   16.0587 H   0  0  0  0  0  0  0  0  0  0  0  0
   26.7318   21.2090   14.8488 H   0  0  0  0  0  0  0  0  0  0  0  0
   29.7158    8.9179    7.2561 H   0  0  0  0  0  0  0  0  0  0  0  0
  1  2  1  0
  2  3  1  0
  3  4  2  0
  4  5  1  0
  5  6  1  0
  6  7  2  0
  6  8  2  0
  6  9  1  0
  9 10  2  0
 10 11  1  0
 11 12  2  0
 12 13  1  0
 13 14  2  0
 14 15  1  0
 15 16  1  0
 16 17  3  0
 17 18  1  0
 18 19  2  0
 19 20  1  0
 20 21  2  0
 21 22  1  0
 22 23  2  0
 23 24  1  0
 24 25  1  0
 25 26  1  0
 26 27  1  0
 27 28  1  0
 28 29  1  0
 29 30  2  0
 29 31  1  0
 31 32  1  0
 32 33  2  0
 25 34  1  0
 34 35  2  0
  5 36  1  0
 36 37  2  0
 37  3  1  0
 14  9  1  0
 23 18  1  0
 32 26  1  0
 34 22  1  0
  1 38  1  0
  1 39  1  0
  1 40  1  0
  2 41  1  0
  2 42  1  0
  4 43  1  0
 10 44  1  0
 11 45  1  0
 12 46  1  0
 13 47  1  0
 15 48  1  0
 15 49  1  0
 19 50  1  0
 20 51  1  0
 21 52  1  0
 24 53  1  0
 24 54  1  0
 26 55  1  6
 27 56  1  0
 27 57  1  0
 28 58  1  0
 28 59  1  0
 31 60  1  0
 36 61  1  0
M  END
>  <meeko>  (302) 
{"is_sidechain": [true], "free_energy": -13.23, "intermolecular_energy": 0.0, "internal_energy": -13.23, "cluster_size": 20, "cluster_id": 1, "rank_in_cluster": 1}

>  <_RMSD_MCS_to_ref>  (302) 
1.148755945456745

$$$$
ligand
     RDKit          3D

 62 67  0  0  0  0  0  0  0  0999 V2000
   24.8540    9.4020    7.6050 C   0  0  0  0  0  0  0  0  0  0  0  0
   25.5230   10.7550    7.4270 C   0  0  0  0  0  0  0  0  0  0  0  0
   25.1690   11.3910    6.1290 C   0  0  0  0  0  0  0  0  0  0  0  0
   24.6050   12.6310    5.8970 C   0  0  0  0  0  0  0  0  0  0  0  0
   24.5150   12.7090    4.5370 N   0  0  0  0  0  0  0  0  0  0  0  0
   23.7530   13.9350    3.6650 S   0  0  0  0  0  6  0  0  0  0  0  0
   22.3440   13.8180    4.0040 O   0  0  0  0  0  0  0  0  0  0  0  0
   24.2030   13.7340    2.2990 O   0  0  0  0  0  0  0  0  0  0  0  0
   24.3270   15.3750    4.1820 O   0  0  0  0  0  0  0  0  0  0  0  0
   25.2140   15.3850    5.2170 C   0  0  0  0  0  0  0  0  0  0  0  0
   24.8000   15.7140    6.5090 C   0  0  0  0  0  0  0  0  0  0  0  0
   25.7180   15.7370    7.5840 C   0  0  0  0  0  0  0  0  0  0  0  0
   25.2670   16.0700    8.9470 C   0  0  0  0  0  0  0  0  0  0  0  0
   24.1120   15.4510    9.4910 C   0  0  0  0  0  0  0  0  0  0  0  0
   23.6590   15.7500   10.7800 C   0  0  0  0  0  0  0  0  0  0  0  0
   24.3780   16.6790   11.5040 C   0  0  0  0  0  0  0  0  0  0  0  0
   25.5170   17.3040   11.0030 C   0  0  0  0  0  0  0  0  0  0  0  0
   25.9710   17.0100    9.7280 C   0  0  0  0  0  0  0  0  0  0  0  0
   26.0720   18.2490   12.0170 C   0  0  0  0  0  0  0  0  0  0  0  0
   25.1260   18.1180   13.1200 N   0  0  0  0  0  0  0  0  0  0  0  0
   25.3360   18.6850   14.4500 C   0  0  1  0  0  0  0  0  0  0  0  0
   26.5110   17.9990   15.1510 C   0  0  0  0  0  0  0  0  0  0  0  0
   26.6280   18.5080   16.5780 C   0  0  0  0  0  0  0  0  0  0  0  0
   26.7640   20.0110   16.6110 C   0  0  0  0  0  0  0  0  0  0  0  0
   27.4280   20.5930   17.4640 O   0  0  0  0  0  0  0  0  0  0  0  0
   26.0800   20.7090   15.6490 N   0  0  0  0  0  0  0  0  0  0  0  0
   25.5440   20.2080   14.4850 C   0  0  0  0  0  0  0  0  0  0  0  0
   25.2400   20.9720   13.5720 O   0  0  0  0  0  0  0  0  0  0  0  0
   24.1470   17.1710   12.8660 C   0  0  0  0  0  0  0  0  0  0  0  0
   23.2790   16.7740   13.6180 O   0  0  0  0  0  0  0  0  0  0  0  0
   27.0720   15.4370    7.3270 C   0  0  0  0  0  0  0  0  0  0  0  0
   27.4630   15.1240    6.0340 C   0  0  0  0  0  0  0  0  0  0  0  0
   26.5460   15.1070    5.0000 C   0  0  0  0  0  0  0  0  0  0  0  0
   27.0950   14.7940    3.7850 O   0  0  0  0  0  0  0  0  0  0  0  0
   28.4090   14.2860    4.1260 C   0  0  0  0  0  0  0  0  0  0  0  0
   28.8110   14.8310    5.4970 C   0  0  0  0  0  0  0  0  0  0  0  0
   24.9600   11.5460    3.9950 C   0  0  0  0  0  0  0  0  0  0  0  0
   25.3790   10.7250    4.9370 N   0  0  0  0  0  0  0  0  0  0  0  0
   24.7464    9.1845    8.6779 H   0  0  0  0  0  0  0  0  0  0  0  0
   23.8606    9.4192    7.1330 H   0  0  0  0  0  0  0  0  0  0  0  0
   25.4708    8.6230    7.1330 H   0  0  0  0  0  0  0  0  0  0  0  0
   25.2044   11.4180    8.2449 H   0  0  0  0  0  0  0  0  0  0  0  0
   26.6116   10.5976    7.4400 H   0  0  0  0  0  0  0  0  0  0  0  0
   24.2986   13.3833    6.6387 H   0  0  0  0  0  0  0  0  0  0  0  0
   23.7436   15.9590    6.6934 H   0  0  0  0  0  0  0  0  0  0  0  0
   23.5596   14.7183    8.8844 H   0  0  0  0  0  0  0  0  0  0  0  0
   22.7657   15.2643   11.1997 H   0  0  0  0  0  0  0  0  0  0  0  0
   26.8696   17.5036    9.3294 H   0  0  0  0  0  0  0  0  0  0  0  0
   27.0854   17.9520   12.3248 H   0  0  0  0  0  0  0  0  0  0  0  0
   26.1746   19.2797   11.6467 H   0  0  0  0  0  0  0  0  0  0  0  0
   24.3932   18.4935   14.9834 H   0  0  0  0  0  0  0  0  0  0  0  0
   26.3442   16.9118   15.1637 H   0  0  0  0  0  0  0  0  0  0  0  0
   27.4402   18.2254   14.6075 H   0  0  0  0  0  0  0  0  0  0  0  0
   25.7272   18.2167   17.1380 H   0  0  0  0  0  0  0  0  0  0  0  0
   27.5268   18.0664   17.0332 H   0  0  0  0  0  0  0  0  0  0  0  0
   25.9538   21.7175   15.8159 H   0  0  0  0  0  0  0  0  0  0  0  0
   27.8095   15.4512    8.1431 H   0  0  0  0  0  0  0  0  0  0  0  0
   28.3827   13.1868    4.1590 H   0  0  0  0  0  0  0  0  0  0  0  0
   29.1400   14.6062    3.3690 H   0  0  0  0  0  0  0  0  0  0  0  0
   29.3410   14.0793    6.1004 H   0  0  0  0  0  0  0  0  0  0  0  0
   29.5093   15.6808    5.4821 H   0  0  0  0  0  0  0  0  0  0  0  0
   24.9694   11.3204    2.9184 H   0  0  0  0  0  0  0  0  0  0  0  0
  1  2  1  0
  2  3  1  0
  3  4  2  0
  4  5  1  0
  5  6  1  0
  6  7  2  0
  6  8  2  0
  6  9  1  0
  9 10  1  0
 10 11  2  0
 11 12  1  0
 12 13  1  0
 13 14  2  0
 14 15  1  0
 15 16  2  0
 16 17  1  0
 17 18  2  0
 17 19  1  0
 19 20  1  0
 20 21  1  0
 21 22  1  0
 22 23  1  0
 23 24  1  0
 24 25  2  0
 24 26  1  0
 26 27  1  0
 27 28  2  0
 20 29  1  0
 29 30  2  0
 12 31  2  0
 31 32  1  0
 32 33  2  0
 33 34  1  0
 34 35  1  0
 35 36  1  0
  5 37  1  0
 37 38  2  0
 38  3  1  0
 33 10  1  0
 18 13  1  0
 27 21  1  0
 36 32  1  0
 29 16  1  0
  1 39  1  0
  1 40  1  0
  1 41  1  0
  2 42  1  0
  2 43  1  0
  4 44  1  0
 11 45  1  0
 14 46  1  0
 15 47  1  0
 18 48  1  0
 19 49  1  0
 19 50  1  0
 21 51  1  1
 22 52  1  0
 22 53  1  0
 23 54  1  0
 23 55  1  0
 26 56  1  0
 31 57  1  0
 35 58  1  0
 35 59  1  0
 36 60  1  0
 36 61  1  0
 37 62  1  0
M  END
>  <meeko>  (303) 
{"is_sidechain": [true], "free_energy": -13.22, "intermolecular_energy": 0.0, "internal_energy": -13.22, "cluster_size": 15, "cluster_id": 1, "rank_in_cluster": 1}

>  <_RMSD_MCS_to_ref>  (303) 
0.5511667422638783

$$$$
ligand
     RDKit          3D

 59 64  0  0  0  0  0  0  0  0999 V2000
   24.8710    9.6170    7.7820 C   0  0  0  0  0  0  0  0  0  0  0  0
   25.4240   10.9640    7.3490 C   0  0  0  0  0  0  0  0  0  0  0  0
   26.6930   11.3200    8.0430 C   0  0  0  0  0  0  0  0  0  0  0  0
   27.9840   11.3320    7.5440 C   0  0  0  0  0  0  0  0  0  0  0  0
   28.7490   11.7090    8.6080 N   0  0  0  0  0  0  0  0  0  0  0  0
   30.3780   12.1220    8.5660 S   0  0  0  0  0  6  0  0  0  0  0  0
   31.0580   10.9440    8.0580 O   0  0  0  0  0  0  0  0  0  0  0  0
   30.6430   12.6000    9.9120 O   0  0  0  0  0  0  0  0  0  0  0  0
   30.5950   13.3790    7.5450 O   0  0  0  0  0  0  0  0  0  0  0  0
   29.6350   13.7630    6.6850 C   0  0  0  0  0  0  0  0  0  0  0  0
   29.7960   13.7370    5.3200 C   0  0  0  0  0  0  0  0  0  0  0  0
   28.6630   14.1770    4.7030 O   0  0  0  0  0  0  0  0  0  0  0  0
   27.7890   14.5180    5.6910 C   0  0  0  0  0  0  0  0  0  0  0  0
   26.5180   15.0380    5.5310 C   0  0  0  0  0  0  0  0  0  0  0  0
   25.8640   15.3530    6.7240 C   0  0  0  0  0  0  0  0  0  0  0  0
   26.4850   15.1390    7.9660 C   0  0  0  0  0  0  0  0  0  0  0  0
   25.8450   15.5550    9.2360 C   0  0  0  0  0  0  0  0  0  0  0  0
   24.4530   15.3730    9.4620 C   0  0  0  0  0  0  0  0  0  0  0  0
   23.8290   15.8210   10.6340 C   0  0  0  0  0  0  0  0  0  0  0  0
   24.6170   16.4610   11.5660 C   0  0  0  0  0  0  0  0  0  0  0  0
   25.9790   16.6610   11.3820 C   0  0  0  0  0  0  0  0  0  0  0  0
   26.6020   16.1990   10.2360 C   0  0  0  0  0  0  0  0  0  0  0  0
   26.5380   17.4550   12.5130 C   0  0  0  0  0  0  0  0  0  0  0  0
   25.3960   17.5780   13.4100 N   0  0  0  0  0  0  0  0  0  0  0  0
   25.4190   18.5070   14.5320 C   0  0  2  0  0  0  0  0  0  0  0  0
   26.0250   19.8670   14.1880 C   0  0  0  0  0  0  0  0  0  0  0  0
   25.9380   20.7790   15.4020 C   0  0  0  0  0  0  0  0  0  0  0  0
   26.6220   20.1630   16.6000 C   0  0  0  0  0  0  0  0  0  0  0  0
   27.0670   20.8420   17.5210 O   0  0  0  0  0  0  0  0  0  0  0  0
   26.6550   18.7920   16.6540 N   0  0  0  0  0  0  0  0  0  0  0  0
   26.1320   17.8940   15.7500 C   0  0  0  0  0  0  0  0  0  0  0  0
   26.1710   16.6870   15.9860 O   0  0  0  0  0  0  0  0  0  0  0  0
   24.2330   17.0820   12.8380 C   0  0  0  0  0  0  0  0  0  0  0  0
   23.0940   17.1500   13.2570 O   0  0  0  0  0  0  0  0  0  0  0  0
   27.7210   14.5770    8.1040 N   0  0  0  0  0  0  0  0  0  0  0  0
   28.3500   14.2890    6.9390 C   0  0  0  0  0  0  0  0  0  0  0  0
   27.9360   12.0310    9.6480 C   0  0  0  0  0  0  0  0  0  0  0  0
   26.6810   11.7540    9.3580 N   0  0  0  0  0  0  0  0  0  0  0  0
   24.8498    9.5653    8.8806 H   0  0  0  0  0  0  0  0  0  0  0  0
   23.8505    9.4962    7.3895 H   0  0  0  0  0  0  0  0  0  0  0  0
   25.5122    8.8140    7.3895 H   0  0  0  0  0  0  0  0  0  0  0  0
   25.6129   10.9340    6.2658 H   0  0  0  0  0  0  0  0  0  0  0  0
   24.6777   11.7276    7.6135 H   0  0  0  0  0  0  0  0  0  0  0  0
   28.3166   11.0924    6.5232 H   0  0  0  0  0  0  0  0  0  0  0  0
   30.7081   13.4083    4.8003 H   0  0  0  0  0  0  0  0  0  0  0  0
   26.0588   15.1913    4.5433 H   0  0  0  0  0  0  0  0  0  0  0  0
   24.8485   15.7745    6.6909 H   0  0  0  0  0  0  0  0  0  0  0  0
   23.8489   14.8662    8.6951 H   0  0  0  0  0  0  0  0  0  0  0  0
   22.7529   15.6679   10.8033 H   0  0  0  0  0  0  0  0  0  0  0  0
   27.6859   16.3340   10.1055 H   0  0  0  0  0  0  0  0  0  0  0  0
   27.3692   16.9231   12.9990 H   0  0  0  0  0  0  0  0  0  0  0  0
   26.9569   18.4236   12.2026 H   0  0  0  0  0  0  0  0  0  0  0  0
   24.3645   18.6895   14.7864 H   0  0  0  0  0  0  0  0  0  0  0  0
   27.0789   19.7374   13.9008 H   0  0  0  0  0  0  0  0  0  0  0  0
   25.4708   20.3155   13.3503 H   0  0  0  0  0  0  0  0  0  0  0  0
   26.4231   21.7376   15.1658 H   0  0  0  0  0  0  0  0  0  0  0  0
   24.8765   20.9307   15.6476 H   0  0  0  0  0  0  0  0  0  0  0  0
   27.1297   18.3840   17.4720 H   0  0  0  0  0  0  0  0  0  0  0  0
   28.2782   12.4630   10.6000 H   0  0  0  0  0  0  0  0  0  0  0  0
  1  2  1  0
  2  3  1  0
  3  4  2  0
  4  5  1  0
  5  6  1  0
  6  7  2  0
  6  8  2  0
  6  9  1  0
  9 10  1  0
 10 11  2  0
 11 12  1  0
 12 13  1  0
 13 14  2  0
 14 15  1  0
 15 16  2  0
 16 17  1  0
 17 18  2  0
 18 19  1  0
 19 20  2  0
 20 21  1  0
 21 22  2  0
 21 23  1  0
 23 24  1  0
 24 25  1  0
 25 26  1  0
 26 27  1  0
 27 28  1  0
 28 29  2  0
 28 30  1  0
 30 31  1  0
 31 32  2  0
 24 33  1  0
 33 34  2  0
 16 35  1  0
 35 36  2  0
  5 37  1  0
 37 38  2  0
 38  3  1  0
 36 10  1  0
 36 13  1  0
 22 17  1  0
 31 25  1  0
 33 20  1  0
  1 39  1  0
  1 40  1  0
  1 41  1  0
  2 42  1  0
  2 43  1  0
  4 44  1  0
 11 45  1  0
 14 46  1  0
 15 47  1  0
 18 48  1  0
 19 49  1  0
 22 50  1  0
 23 51  1  0
 23 52  1  0
 25 53  1  1
 26 54  1  0
 26 55  1  0
 27 56  1  0
 27 57  1  0
 30 58  1  0
 37 59  1  0
M  END
>  <meeko>  (304) 
{"is_sidechain": [true], "free_energy": -13.22, "intermolecular_energy": 0.0, "internal_energy": -13.22, "cluster_size": 14, "cluster_id": 1, "rank_in_cluster": 1}

>  <_RMSD_MCS_to_ref>  (304) 
1.7120860928918513

$$$$
ligand
     RDKit          3D

 54 58  0  0  0  0  0  0  0  0999 V2000
   24.8540    9.4020    7.6050 C   0  0  0  0  0  0  0  0  0  0  0  0
   25.5230   10.7550    7.4270 C   0  0  0  0  0  0  0  0  0  0  0  0
   25.2650   11.3370    6.0820 C   0  0  0  0  0  0  0  0  0  0  0  0
   24.7010   12.5540    5.7560 C   0  0  0  0  0  0  0  0  0  0  0  0
   24.6740   12.5560    4.3900 N   0  0  0  0  0  0  0  0  0  0  0  0
   24.3090   13.8800    3.4140 S   0  0  0  0  0  6  0  0  0  0  0  0
   24.7250   13.4830    2.0800 O   0  0  0  0  0  0  0  0  0  0  0  0
   22.9230   14.1890    3.7140 O   0  0  0  0  0  0  0  0  0  0  0  0
   25.2600   15.0960    3.9340 O   0  0  0  0  0  0  0  0  0  0  0  0
   25.6340   15.2170    5.2090 C   0  0  0  0  0  0  0  0  0  0  0  0
   26.8540   15.0260    5.8270 C   0  0  0  0  0  0  0  0  0  0  0  0
   26.8070   15.2730    7.2300 C   0  0  0  0  0  0  0  0  0  0  0  0
   25.5480   15.6380    7.6640 C   0  0  0  0  0  0  0  0  0  0  0  0
   25.1100   15.9870    9.0230 C   0  0  0  0  0  0  0  0  0  0  0  0
   23.9220   15.4130    9.5400 C   0  0  0  0  0  0  0  0  0  0  0  0
   23.4640   15.7230   10.8240 C   0  0  0  0  0  0  0  0  0  0  0  0
   24.2100   16.6170   11.5650 C   0  0  0  0  0  0  0  0  0  0  0  0
   25.3790   17.2000   11.0830 C   0  0  0  0  0  0  0  0  0  0  0  0
   25.8420   16.8940    9.8130 C   0  0  0  0  0  0  0  0  0  0  0  0
   25.9650   18.0950   12.1210 C   0  0  0  0  0  0  0  0  0  0  0  0
   24.9660   18.0570   13.1800 N   0  0  0  0  0  0  0  0  0  0  0  0
   25.2330   18.6290   14.4960 C   0  0  1  0  0  0  0  0  0  0  0  0
   26.3040   17.8790   15.2870 C   0  0  0  0  0  0  0  0  0  0  0  0
   26.4560   18.5190   16.6590 C   0  0  0  0  0  0  0  0  0  0  0  0
   26.7880   19.9880   16.5440 C   0  0  0  0  0  0  0  0  0  0  0  0
   27.3510   20.6040   17.4440 O   0  0  0  0  0  0  0  0  0  0  0  0
   26.3530   20.6330   15.4130 N   0  0  0  0  0  0  0  0  0  0  0  0
   25.5840   20.1210   14.3920 C   0  0  0  0  0  0  0  0  0  0  0  0
   25.1320   20.8660   13.5230 O   0  0  0  0  0  0  0  0  0  0  0  0
   23.9760   17.1180   12.9230 C   0  0  0  0  0  0  0  0  0  0  0  0
   23.0800   16.7430   13.6520 O   0  0  0  0  0  0  0  0  0  0  0  0
   24.4460   15.6920    6.3510 S   0  0  0  0  0  0  0  0  0  0  0  0
   25.2730   11.4280    3.9320 C   0  0  0  0  0  0  0  0  0  0  0  0
   25.6220   10.6510    4.9380 N   0  0  0  0  0  0  0  0  0  0  0  0
   24.7464    9.1845    8.6779 H   0  0  0  0  0  0  0  0  0  0  0  0
   23.8606    9.4192    7.1330 H   0  0  0  0  0  0  0  0  0  0  0  0
   25.4708    8.6230    7.1330 H   0  0  0  0  0  0  0  0  0  0  0  0
   25.1362   11.4448    8.1916 H   0  0  0  0  0  0  0  0  0  0  0  0
   26.6087   10.6111    7.5301 H   0  0  0  0  0  0  0  0  0  0  0  0
   24.3528   13.3422    6.4398 H   0  0  0  0  0  0  0  0  0  0  0  0
   27.7648   14.7163    5.2936 H   0  0  0  0  0  0  0  0  0  0  0  0
   27.6788   15.1827    7.8947 H   0  0  0  0  0  0  0  0  0  0  0  0
   23.3487   14.7094    8.9186 H   0  0  0  0  0  0  0  0  0  0  0  0
   22.5454   15.2722   11.2277 H   0  0  0  0  0  0  0  0  0  0  0  0
   26.7655   17.3518    9.4288 H   0  0  0  0  0  0  0  0  0  0  0  0
   26.9329   17.7106   12.4752 H   0  0  0  0  0  0  0  0  0  0  0  0
   26.1724   19.1109   11.7538 H   0  0  0  0  0  0  0  0  0  0  0  0
   24.2967   18.5180   15.0626 H   0  0  0  0  0  0  0  0  0  0  0  0
   26.0055   16.8267   15.4034 H   0  0  0  0  0  0  0  0  0  0  0  0
   27.2621   17.9287   14.7489 H   0  0  0  0  0  0  0  0  0  0  0  0
   25.5126   18.4069   17.2135 H   0  0  0  0  0  0  0  0  0  0  0  0
   27.2794   18.0167   17.1878 H   0  0  0  0  0  0  0  0  0  0  0  0
   26.6359   21.6187   15.3165 H   0  0  0  0  0  0  0  0  0  0  0  0
   25.4434   11.1947    2.8706 H   0  0  0  0  0  0  0  0  0  0  0  0
  1  2  1  0
  2  3  1  0
  3  4  2  0
  4  5  1  0
  5  6  1  0
  6  7  2  0
  6  8  2  0
  6  9  1  0
  9 10  1  0
 10 11  2  0
 11 12  1  0
 12 13  2  0
 13 14  1  0
 14 15  2  0
 15 16  1  0
 16 17  2  0
 17 18  1  0
 18 19  2  0
 18 20  1  0
 20 21  1  0
 21 22  1  0
 22 23  1  0
 23 24  1  0
 24 25  1  0
 25 26  2  0
 25 27  1  0
 27 28  1  0
 28 29  2  0
 21 30  1  0
 30 31  2  0
 13 32  1  0
  5 33  1  0
 33 34  2  0
 34  3  1  0
 32 10  1  0
 19 14  1  0
 28 22  1  0
 30 17  1  0
  1 35  1  0
  1 36  1  0
  1 37  1  0
  2 38  1  0
  2 39  1  0
  4 40  1  0
 11 41  1  0
 12 42  1  0
 15 43  1  0
 16 44  1  0
 19 45  1  0
 20 46  1  0
 20 47  1  0
 22 48  1  1
 23 49  1  0
 23 50  1  0
 24 51  1  0
 24 52  1  0
 27 53  1  0
 33 54  1  0
M  END
>  <meeko>  (305) 
{"is_sidechain": [true], "free_energy": -13.21, "intermolecular_energy": 0.0, "internal_energy": -13.21, "cluster_size": 15, "cluster_id": 1, "rank_in_cluster": 1}

>  <_RMSD_MCS_to_ref>  (305) 
0.4490372417121366

$$$$
ligand
     RDKit          3D

 55 59  0  0  0  0  0  0  0  0999 V2000
   24.8540    9.4020    7.6050 C   0  0  0  0  0  0  0  0  0  0  0  0
   25.5230   10.7550    7.4270 C   0  0  0  0  0  0  0  0  0  0  0  0
   25.3680   11.2820    6.0440 C   0  0  0  0  0  0  0  0  0  0  0  0
   26.0610   12.2970    5.4170 C   0  0  0  0  0  0  0  0  0  0  0  0
   25.4950   12.3700    4.1750 N   0  0  0  0  0  0  0  0  0  0  0  0
   25.9760   13.4180    2.9460 S   0  0  0  0  0  6  0  0  0  0  0  0
   27.1980   12.8650    2.3890 O   0  0  0  0  0  0  0  0  0  0  0  0
   24.7870   13.5410    2.1190 O   0  0  0  0  0  0  0  0  0  0  0  0
   26.2670   14.8870    3.5800 O   0  0  0  0  0  0  0  0  0  0  0  0
   25.9640   15.1460    4.8900 C   0  0  0  0  0  0  0  0  0  0  0  0
   26.9400   15.7220    5.6770 C   0  0  0  0  0  0  0  0  0  0  0  0
   26.6310   16.0270    7.0020 C   0  0  0  0  0  0  0  0  0  0  0  0
   25.3570   15.7480    7.4860 C   0  0  0  0  0  0  0  0  0  0  0  0
   24.9170   16.0350    8.8660 C   0  0  0  0  0  0  0  0  0  0  0  0
   23.7700   15.4130    9.4300 C   0  0  0  0  0  0  0  0  0  0  0  0
   23.3520   15.6790   10.7400 C   0  0  0  0  0  0  0  0  0  0  0  0
   24.0940   16.5830   11.4730 C   0  0  0  0  0  0  0  0  0  0  0  0
   25.2170   17.2180   10.9590 C   0  0  0  0  0  0  0  0  0  0  0  0
   25.6370   16.9550    9.6640 C   0  0  0  0  0  0  0  0  0  0  0  0
   25.8110   18.1160   11.9900 C   0  0  0  0  0  0  0  0  0  0  0  0
   24.8600   18.0120   13.0890 N   0  0  0  0  0  0  0  0  0  0  0  0
   25.1620   18.5660   14.4050 C   0  0  1  0  0  0  0  0  0  0  0  0
   26.3220   17.8670   15.1140 C   0  0  0  0  0  0  0  0  0  0  0  0
   26.5100   18.4780   16.4940 C   0  0  0  0  0  0  0  0  0  0  0  0
   26.7390   19.9690   16.4060 C   0  0  0  0  0  0  0  0  0  0  0  0
   27.3190   20.5960   17.2890 O   0  0  0  0  0  0  0  0  0  0  0  0
   26.1930   20.6140   15.3250 N   0  0  0  0  0  0  0  0  0  0  0  0
   25.4100   20.0800   14.3270 C   0  0  0  0  0  0  0  0  0  0  0  0
   24.8720   20.8150   13.5000 O   0  0  0  0  0  0  0  0  0  0  0  0
   23.8960   17.0450   12.8500 C   0  0  0  0  0  0  0  0  0  0  0  0
   23.0470   16.6170   13.6060 O   0  0  0  0  0  0  0  0  0  0  0  0
   24.4300   15.1960    6.6660 N   0  0  0  0  0  0  0  0  0  0  0  0
   24.7340   14.8950    5.3620 N   0  0  0  0  0  0  0  0  0  0  0  0
   24.5340   11.4190    4.0640 C   0  0  0  0  0  0  0  0  0  0  0  0
   24.4210   10.7460    5.1920 N   0  0  0  0  0  0  0  0  0  0  0  0
   24.7464    9.1845    8.6779 H   0  0  0  0  0  0  0  0  0  0  0  0
   23.8606    9.4192    7.1330 H   0  0  0  0  0  0  0  0  0  0  0  0
   25.4708    8.6230    7.1330 H   0  0  0  0  0  0  0  0  0  0  0  0
   25.0705   11.4691    8.1308 H   0  0  0  0  0  0  0  0  0  0  0  0
   26.5983   10.6278    7.6210 H   0  0  0  0  0  0  0  0  0  0  0  0
   26.8809   12.9074    5.8234 H   0  0  0  0  0  0  0  0  0  0  0  0
   27.9388   15.9356    5.2686 H   0  0  0  0  0  0  0  0  0  0  0  0
   27.3869   16.4836    7.6579 H   0  0  0  0  0  0  0  0  0  0  0  0
   23.1938   14.7019    8.8197 H   0  0  0  0  0  0  0  0  0  0  0  0
   22.4665   15.1865   11.1682 H   0  0  0  0  0  0  0  0  0  0  0  0
   26.5264   17.4596    9.2587 H   0  0  0  0  0  0  0  0  0  0  0  0
   26.8086   17.7662   12.2939 H   0  0  0  0  0  0  0  0  0  0  0  0
   25.9609   19.1472   11.6376 H   0  0  0  0  0  0  0  0  0  0  0  0
   24.2677   18.3795   15.0177 H   0  0  0  0  0  0  0  0  0  0  0  0
   26.0985   16.7946   15.2144 H   0  0  0  0  0  0  0  0  0  0  0  0
   27.2431   17.9943   14.5264 H   0  0  0  0  0  0  0  0  0  0  0  0
   25.6090   18.2885   17.0959 H   0  0  0  0  0  0  0  0  0  0  0  0
   27.3930   18.0174   16.9610 H   0  0  0  0  0  0  0  0  0  0  0  0
   26.3938   21.6216   15.2514 H   0  0  0  0  0  0  0  0  0  0  0  0
   23.9339   11.2354    3.1606 H   0  0  0  0  0  0  0  0  0  0  0  0
  1  2  1  0
  2  3  1  0
  3  4  2  0
  4  5  1  0
  5  6  1  0
  6  7  2  0
  6  8  2  0
  6  9  1  0
  9 10  1  0
 10 11  2  0
 11 12  1  0
 12 13  2  0
 13 14  1  0
 14 15  2  0
 15 16  1  0
 16 17  2  0
 17 18  1  0
 18 19  2  0
 18 20  1  0
 20 21  1  0
 21 22  1  0
 22 23  1  0
 23 24  1  0
 24 25  1  0
 25 26  2  0
 25 27  1  0
 27 28  1  0
 28 29  2  0
 21 30  1  0
 30 31  2  0
 13 32  1  0
 32 33  2  0
  5 34  1  0
 34 35  2  0
 35  3  1  0
 33 10  1  0
 19 14  1  0
 28 22  1  0
 30 17  1  0
  1 36  1  0
  1 37  1  0
  1 38  1  0
  2 39  1  0
  2 40  1  0
  4 41  1  0
 11 42  1  0
 12 43  1  0
 15 44  1  0
 16 45  1  0
 19 46  1  0
 20 47  1  0
 20 48  1  0
 22 49  1  1
 23 50  1  0
 23 51  1  0
 24 52  1  0
 24 53  1  0
 27 54  1  0
 34 55  1  0
M  END
>  <meeko>  (306) 
{"is_sidechain": [true], "free_energy": -13.2, "intermolecular_energy": 0.0, "internal_energy": -13.2, "cluster_size": 20, "cluster_id": 1, "rank_in_cluster": 1}

>  <_RMSD_MCS_to_ref>  (306) 
0.418273966571087

$$$$
ligand
     RDKit          3D

 59 64  0  0  0  0  0  0  0  0999 V2000
   24.8710    9.6170    7.7820 C   0  0  0  0  0  0  0  0  0  0  0  0
   25.4240   10.9640    7.3490 C   0  0  0  0  0  0  0  0  0  0  0  0
   26.9080   11.0260    7.4400 C   0  0  0  0  0  0  0  0  0  0  0  0
   27.6990   11.9760    8.0600 C   0  0  0  0  0  0  0  0  0  0  0  0
   28.9720   11.5220    7.8730 N   0  0  0  0  0  0  0  0  0  0  0  0
   30.3890   12.3630    8.2100 S   0  0  0  0  0  6  0  0  0  0  0  0
   31.4270   11.3700    7.9890 O   0  0  0  0  0  0  0  0  0  0  0  0
   30.1920   12.9320    9.5320 O   0  0  0  0  0  0  0  0  0  0  0  0
   30.6000   13.5450    7.1030 O   0  0  0  0  0  0  0  0  0  0  0  0
   29.6410   13.9230    6.2400 C   0  0  0  0  0  0  0  0  0  0  0  0
   29.6270   13.6890    4.8600 C   0  0  0  0  0  0  0  0  0  0  0  0
   28.5220   14.1540    4.2770 N   0  0  0  0  0  0  0  0  0  0  0  0
   27.7920   14.6720    5.2990 N   0  0  0  0  0  0  0  0  0  0  0  0
   26.5380   15.2610    5.2300 C   0  0  0  0  0  0  0  0  0  0  0  0
   25.9240   15.6870    6.3420 C   0  0  0  0  0  0  0  0  0  0  0  0
   26.6790   15.4690    7.6210 C   0  0  0  0  0  0  0  0  0  0  0  0
   25.9870   15.8890    8.8700 C   0  0  0  0  0  0  0  0  0  0  0  0
   24.6980   15.4060    9.1880 C   0  0  0  0  0  0  0  0  0  0  0  0
   24.0860   15.7620   10.3930 C   0  0  0  0  0  0  0  0  0  0  0  0
   24.7960   16.5780   11.2520 C   0  0  0  0  0  0  0  0  0  0  0  0
   26.0690   17.0580   10.9560 C   0  0  0  0  0  0  0  0  0  0  0  0
   26.6760   16.7290    9.7580 C   0  0  0  0  0  0  0  0  0  0  0  0
   26.5770   17.8920   12.0830 C   0  0  0  0  0  0  0  0  0  0  0  0
   25.5160   17.7660   13.0740 N   0  0  0  0  0  0  0  0  0  0  0  0
   25.5010   18.5940   14.2730 C   0  0  2  0  0  0  0  0  0  0  0  0
   26.1140   19.9800   14.0710 C   0  0  0  0  0  0  0  0  0  0  0  0
   25.9950   20.7760   15.3600 C   0  0  0  0  0  0  0  0  0  0  0  0
   26.6460   20.0510   16.5140 C   0  0  0  0  0  0  0  0  0  0  0  0
   27.0560   20.6410   17.5110 O   0  0  0  0  0  0  0  0  0  0  0  0
   26.6910   18.6820   16.4370 N   0  0  0  0  0  0  0  0  0  0  0  0
   26.1750   17.8730   15.4500 C   0  0  0  0  0  0  0  0  0  0  0  0
   26.1790   16.6490   15.5860 O   0  0  0  0  0  0  0  0  0  0  0  0
   24.4200   17.0760   12.5800 C   0  0  0  0  0  0  0  0  0  0  0  0
   23.3330   16.9020   13.0980 O   0  0  0  0  0  0  0  0  0  0  0  0
   27.8760   14.9510    7.7030 N   0  0  0  0  0  0  0  0  0  0  0  0
   28.4460   14.5400    6.5310 C   0  0  0  0  0  0  0  0  0  0  0  0
   28.9380   10.4300    7.0640 C   0  0  0  0  0  0  0  0  0  0  0  0
   27.6930   10.0670    6.8250 N   0  0  0  0  0  0  0  0  0  0  0  0
   24.8498    9.5653    8.8806 H   0  0  0  0  0  0  0  0  0  0  0  0
   23.8505    9.4962    7.3895 H   0  0  0  0  0  0  0  0  0  0  0  0
   25.5122    8.8140    7.3895 H   0  0  0  0  0  0  0  0  0  0  0  0
   25.1264   11.1490    6.3063 H   0  0  0  0  0  0  0  0  0  0  0  0
   25.0151   11.7272    8.0275 H   0  0  0  0  0  0  0  0  0  0  0  0
   27.3761   12.8880    8.5835 H   0  0  0  0  0  0  0  0  0  0  0  0
   30.4367   13.1788    4.3176 H   0  0  0  0  0  0  0  0  0  0  0  0
   26.0437   15.3793    4.2544 H   0  0  0  0  0  0  0  0  0  0  0  0
   24.9333   16.1644    6.3193 H   0  0  0  0  0  0  0  0  0  0  0  0
   24.1726   14.7454    8.4826 H   0  0  0  0  0  0  0  0  0  0  0  0
   23.0769   15.4058   10.6477 H   0  0  0  0  0  0  0  0  0  0  0  0
   27.6746   17.1163    9.5072 H   0  0  0  0  0  0  0  0  0  0  0  0
   27.5297   17.5003   12.4690 H   0  0  0  0  0  0  0  0  0  0  0  0
   26.7876   18.9331   11.7970 H   0  0  0  0  0  0  0  0  0  0  0  0
   24.4391   18.7577   14.5087 H   0  0  0  0  0  0  0  0  0  0  0  0
   27.1751   19.8763   13.8001 H   0  0  0  0  0  0  0  0  0  0  0  0
   25.5806   20.5042   13.2643 H   0  0  0  0  0  0  0  0  0  0  0  0
   26.4866   21.7508   15.2260 H   0  0  0  0  0  0  0  0  0  0  0  0
   24.9274   20.9073   15.5900 H   0  0  0  0  0  0  0  0  0  0  0  0
   27.1691   18.2009   17.2121 H   0  0  0  0  0  0  0  0  0  0  0  0
   29.8265    9.9196    6.6639 H   0  0  0  0  0  0  0  0  0  0  0  0
  1  2  1  0
  2  3  1  0
  3  4  2  0
  4  5  1  0
  5  6  1  0
  6  7  2  0
  6  8  2  0
  6  9  1  0
  9 10  1  0
 10 11  1  0
 11 12  2  0
 12 13  1  0
 13 14  1  0
 14 15  2  0
 15 16  1  0
 16 17  1  0
 17 18  2  0
 18 19  1  0
 19 20  2  0
 20 21  1  0
 21 22  2  0
 21 23  1  0
 23 24  1  0
 24 25  1  0
 25 26  1  0
 26 27  1  0
 27 28  1  0
 28 29  2  0
 28 30  1  0
 30 31  1  0
 31 32  2  0
 24 33  1  0
 33 34  2  0
 16 35  2  0
 35 36  1  0
  5 37  1  0
 37 38  2  0
 38  3  1  0
 36 10  2  0
 36 13  1  0
 22 17  1  0
 31 25  1  0
 33 20  1  0
  1 39  1  0
  1 40  1  0
  1 41  1  0
  2 42  1  0
  2 43  1  0
  4 44  1  0
 11 45  1  0
 14 46  1  0
 15 47  1  0
 18 48  1  0
 19 49  1  0
 22 50  1  0
 23 51  1  0
 23 52  1  0
 25 53  1  1
 26 54  1  0
 26 55  1  0
 27 56  1  0
 27 57  1  0
 30 58  1  0
 37 59  1  0
M  END
>  <meeko>  (307) 
{"is_sidechain": [true], "free_energy": -13.2, "intermolecular_energy": 0.0, "internal_energy": -13.2, "cluster_size": 19, "cluster_id": 1, "rank_in_cluster": 1}

>  <_RMSD_MCS_to_ref>  (307) 
1.7239430171313055

$$$$
ligand
     RDKit          3D

 62 66  0  0  0  0  0  0  0  0999 V2000
   24.8540    9.4020    7.6050 C   0  0  0  0  0  0  0  0  0  0  0  0
   25.5230   10.7550    7.4270 C   0  0  0  0  0  0  0  0  0  0  0  0
   25.2710   11.3350    6.0800 C   0  0  0  0  0  0  0  0  0  0  0  0
   24.6820   12.5410    5.7570 C   0  0  0  0  0  0  0  0  0  0  0  0
   24.6660   12.5540    4.3920 N   0  0  0  0  0  0  0  0  0  0  0  0
   24.2400   13.8530    3.4150 S   0  0  0  0  0  6  0  0  0  0  0  0
   24.8590   13.5690    2.1350 O   0  0  0  0  0  0  0  0  0  0  0  0
   22.8110   14.0270    3.5750 O   0  0  0  0  0  0  0  0  0  0  0  0
   25.0490   15.2510    4.1440 C   0  0  0  0  0  0  0  0  0  0  0  0
   24.3300   16.4170    4.4230 C   0  0  0  0  0  0  0  0  0  0  0  0
   24.9760   17.5050    5.0210 C   0  0  0  0  0  0  0  0  0  0  0  0
   26.3360   17.4300    5.3280 C   0  0  0  0  0  0  0  0  0  0  0  0
   27.0860   18.4220    5.8970 O   0  0  0  0  0  0  0  0  0  0  0  0
   27.7660   18.1410    7.1240 C   0  0  0  0  0  0  0  0  0  0  0  0
   26.8390   17.6270    8.1400 C   0  0  0  0  0  0  0  0  0  0  0  0
   26.0560   17.1830    8.9360 C   0  0  0  0  0  0  0  0  0  0  0  0
   25.0920   16.6920    9.8690 C   0  0  0  0  0  0  0  0  0  0  0  0
   23.9740   15.9760    9.4140 C   0  0  0  0  0  0  0  0  0  0  0  0
   22.9960   15.5110   10.3140 C   0  0  0  0  0  0  0  0  0  0  0  0
   23.1190   15.7580   11.6810 C   0  0  0  0  0  0  0  0  0  0  0  0
   24.2320   16.4610   12.1010 C   0  0  0  0  0  0  0  0  0  0  0  0
   25.2140   16.9250   11.2270 C   0  0  0  0  0  0  0  0  0  0  0  0
   26.2630   17.6600   11.9910 C   0  0  0  0  0  0  0  0  0  0  0  0
   25.8480   17.4680   13.3760 N   0  0  0  0  0  0  0  0  0  0  0  0
   26.4940   18.1970   14.4650 C   0  0  2  0  0  0  0  0  0  0  0  0
   25.9100   17.8920   15.8440 C   0  0  0  0  0  0  0  0  0  0  0  0
   26.6890   18.6540   16.9030 C   0  0  0  0  0  0  0  0  0  0  0  0
   26.6920   20.1380   16.6220 C   0  0  0  0  0  0  0  0  0  0  0  0
   26.8920   20.9680   17.5050 O   0  0  0  0  0  0  0  0  0  0  0  0
   26.5210   20.5200   15.3160 N   0  0  0  0  0  0  0  0  0  0  0  0
   26.4930   19.7120   14.2040 C   0  0  0  0  0  0  0  0  0  0  0  0
   26.5630   20.2050   13.0760 O   0  0  0  0  0  0  0  0  0  0  0  0
   24.6050   16.8600   13.4620 C   0  0  0  0  0  0  0  0  0  0  0  0
   23.9130   16.6790   14.4440 O   0  0  0  0  0  0  0  0  0  0  0  0
   27.0490   16.2680    5.0180 C   0  0  0  0  0  0  0  0  0  0  0  0
   26.4110   15.1730    4.4330 C   0  0  0  0  0  0  0  0  0  0  0  0
   25.2550   11.4200    3.9300 C   0  0  0  0  0  0  0  0  0  0  0  0
   25.6490   10.6600    4.9330 N   0  0  0  0  0  0  0  0  0  0  0  0
   24.7464    9.1845    8.6779 H   0  0  0  0  0  0  0  0  0  0  0  0
   23.8606    9.4192    7.1330 H   0  0  0  0  0  0  0  0  0  0  0  0
   25.4708    8.6230    7.1330 H   0  0  0  0  0  0  0  0  0  0  0  0
   25.1326   11.4460    8.1887 H   0  0  0  0  0  0  0  0  0  0  0  0
   26.6083   10.6113    7.5346 H   0  0  0  0  0  0  0  0  0  0  0  0
   24.3100   13.3157    6.4436 H   0  0  0  0  0  0  0  0  0  0  0  0
   23.2605   16.4791    4.1734 H   0  0  0  0  0  0  0  0  0  0  0  0
   24.4113   18.4209    5.2496 H   0  0  0  0  0  0  0  0  0  0  0  0
   28.5466   17.3888    6.9373 H   0  0  0  0  0  0  0  0  0  0  0  0
   28.2091   19.0757    7.4982 H   0  0  0  0  0  0  0  0  0  0  0  0
   23.8601   15.7751    8.3385 H   0  0  0  0  0  0  0  0  0  0  0  0
   22.1291   14.9491    9.9363 H   0  0  0  0  0  0  0  0  0  0  0  0
   22.3604   15.4073   12.3962 H   0  0  0  0  0  0  0  0  0  0  0  0
   27.2589   17.2284   11.8123 H   0  0  0  0  0  0  0  0  0  0  0  0
   26.3489   18.7186   11.7048 H   0  0  0  0  0  0  0  0  0  0  0  0
   27.5328   17.8356   14.4811 H   0  0  0  0  0  0  0  0  0  0  0  0
   24.8546   18.2008   15.8719 H   0  0  0  0  0  0  0  0  0  0  0  0
   25.9811   16.8123   16.0420 H   0  0  0  0  0  0  0  0  0  0  0  0
   26.2263   18.4764   17.8850 H   0  0  0  0  0  0  0  0  0  0  0  0
   27.7294   18.2970   16.8921 H   0  0  0  0  0  0  0  0  0  0  0  0
   26.3995   21.5291   15.1489 H   0  0  0  0  0  0  0  0  0  0  0  0
   28.1256   16.2161    5.2377 H   0  0  0  0  0  0  0  0  0  0  0  0
   26.9766   14.2582    4.2024 H   0  0  0  0  0  0  0  0  0  0  0  0
   25.3851   11.1705    2.8666 H   0  0  0  0  0  0  0  0  0  0  0  0
  1  2  1  0
  2  3  1  0
  3  4  2  0
  4  5  1  0
  5  6  1  0
  6  7  2  0
  6  8  2  0
  6  9  1  0
  9 10  2  0
 10 11  1  0
 11 12  2  0
 12 13  1  0
 13 14  1  0
 14 15  1  0
 15 16  3  0
 16 17  1  0
 17 18  2  0
 18 19  1  0
 19 20  2  0
 20 21  1  0
 21 22  2  0
 22 23  1  0
 23 24  1  0
 24 25  1  0
 25 26  1  0
 26 27  1  0
 27 28  1  0
 28 29  2  0
 28 30  1  0
 30 31  1  0
 31 32  2  0
 24 33  1  0
 33 34  2  0
 12 35  1  0
 35 36  2  0
  5 37  1  0
 37 38  2  0
 38  3  1  0
 36  9  1  0
 22 17  1  0
 31 25  1  0
 33 21  1  0
  1 39  1  0
  1 40  1  0
  1 41  1  0
  2 42  1  0
  2 43  1  0
  4 44  1  0
 10 45  1  0
 11 46  1  0
 14 47  1  0
 14 48  1  0
 18 49  1  0
 19 50  1  0
 20 51  1  0
 23 52  1  0
 23 53  1  0
 25 54  1  1
 26 55  1  0
 26 56  1  0
 27 57  1  0
 27 58  1  0
 30 59  1  0
 35 60  1  0
 36 61  1  0
 37 62  1  0
M  END
>  <meeko>  (308) 
{"is_sidechain": [true], "free_energy": -13.19, "intermolecular_energy": 0.0, "internal_energy": -13.19, "cluster_size": 16, "cluster_id": 1, "rank_in_cluster": 1}

>  <_RMSD_MCS_to_ref>  (308) 
1.1241269204735425

$$$$
ligand
     RDKit          3D

 61 66  0  0  0  0  0  0  0  0999 V2000
   24.8710    9.6160    7.7820 C   0  0  0  0  0  0  0  0  0  0  0  0
   25.4240   10.9650    7.3490 C   0  0  0  0  0  0  0  0  0  0  0  0
   26.6710   10.8320    6.5490 C   0  0  0  0  0  0  0  0  0  0  0  0
   27.9850   10.8470    6.9760 C   0  0  0  0  0  0  0  0  0  0  0  0
   28.7100   10.6540    5.8350 N   0  0  0  0  0  0  0  0  0  0  0  0
   30.3800   10.8240    5.6920 S   0  0  0  0  0  6  0  0  0  0  0  0
   30.8920   10.6300    7.0350 O   0  0  0  0  0  0  0  0  0  0  0  0
   30.7540    9.9450    4.6010 O   0  0  0  0  0  0  0  0  0  0  0  0
   30.6410   12.3690    5.2420 O   0  0  0  0  0  0  0  0  0  0  0  0
   29.6190   13.2690    5.1120 C   0  0  0  0  0  0  0  0  0  0  0  0
   29.1560   13.8290    3.9340 C   0  0  0  0  0  0  0  0  0  0  0  0
   28.1360   14.7160    3.8810 N   0  0  0  0  0  0  0  0  0  0  0  0
   27.5480   15.0640    5.0440 C   0  0  0  0  0  0  0  0  0  0  0  0
   26.5020   15.9680    5.0490 C   0  0  0  0  0  0  0  0  0  0  0  0
   25.8800   16.3380    6.2420 C   0  0  0  0  0  0  0  0  0  0  0  0
   26.3240   15.7830    7.4370 C   0  0  0  0  0  0  0  0  0  0  0  0
   25.7300   16.1090    8.7510 C   0  0  0  0  0  0  0  0  0  0  0  0
   24.4280   15.6660    9.1130 C   0  0  0  0  0  0  0  0  0  0  0  0
   23.8590   15.9760   10.3540 C   0  0  0  0  0  0  0  0  0  0  0  0
   24.6150   16.7260   11.2290 C   0  0  0  0  0  0  0  0  0  0  0  0
   25.8930   17.1740   10.9190 C   0  0  0  0  0  0  0  0  0  0  0  0
   26.4590   16.8740    9.6900 C   0  0  0  0  0  0  0  0  0  0  0  0
   26.4420   17.9720   12.0520 C   0  0  0  0  0  0  0  0  0  0  0  0
   25.4080   17.8370   13.0700 N   0  0  0  0  0  0  0  0  0  0  0  0
   25.4320   18.6440   14.2850 C   0  0  2  0  0  0  0  0  0  0  0  0
   26.0550   20.0260   14.0940 C   0  0  0  0  0  0  0  0  0  0  0  0
   25.9730   20.8000   15.4010 C   0  0  0  0  0  0  0  0  0  0  0  0
   26.6430   20.0480   16.5260 C   0  0  0  0  0  0  0  0  0  0  0  0
   27.0660   20.6140   17.5300 O   0  0  0  0  0  0  0  0  0  0  0  0
   26.6830   18.6810   16.4160 N   0  0  0  0  0  0  0  0  0  0  0  0
   26.1240   17.8950   15.4350 C   0  0  0  0  0  0  0  0  0  0  0  0
   26.1020   16.6700   15.5580 O   0  0  0  0  0  0  0  0  0  0  0  0
   24.2800   17.1950   12.5780 C   0  0  0  0  0  0  0  0  0  0  0  0
   23.2010   17.0420   13.1150 O   0  0  0  0  0  0  0  0  0  0  0  0
   27.3570   14.9030    7.4620 N   0  0  0  0  0  0  0  0  0  0  0  0
   27.9410   14.5560    6.2960 C   0  0  0  0  0  0  0  0  0  0  0  0
   28.9900   13.6510    6.2970 C   0  0  0  0  0  0  0  0  0  0  0  0
   27.8650   10.6110    4.7730 C   0  0  0  0  0  0  0  0  0  0  0  0
   26.6150   10.6920    5.1760 N   0  0  0  0  0  0  0  0  0  0  0  0
   24.8497    9.5640    8.8806 H   0  0  0  0  0  0  0  0  0  0  0  0
   23.8507    9.4948    7.3893 H   0  0  0  0  0  0  0  0  0  0  0  0
   25.5127    8.8135    7.3893 H   0  0  0  0  0  0  0  0  0  0  0  0
   24.6660   11.4794    6.7401 H   0  0  0  0  0  0  0  0  0  0  0  0
   25.6653   11.5375    8.2567 H   0  0  0  0  0  0  0  0  0  0  0  0
   28.3611   10.9832    8.0007 H   0  0  0  0  0  0  0  0  0  0  0  0
   29.6429   13.5376    2.9916 H   0  0  0  0  0  0  0  0  0  0  0  0
   26.1553   16.4016    4.0994 H   0  0  0  0  0  0  0  0  0  0  0  0
   25.0494   17.0592    6.2371 H   0  0  0  0  0  0  0  0  0  0  0  0
   23.8512   15.0621    8.3970 H   0  0  0  0  0  0  0  0  0  0  0  0
   22.8479   15.6343   10.6204 H   0  0  0  0  0  0  0  0  0  0  0  0
   27.4710   17.2296    9.4463 H   0  0  0  0  0  0  0  0  0  0  0  0
   27.3992   17.5579   12.4016 H   0  0  0  0  0  0  0  0  0  0  0  0
   26.6580   19.0171   11.7853 H   0  0  0  0  0  0  0  0  0  0  0  0
   24.3775   18.8144   14.5477 H   0  0  0  0  0  0  0  0  0  0  0  0
   27.1086   19.9162   13.7976 H   0  0  0  0  0  0  0  0  0  0  0  0
   25.5099   20.5704   13.3088 H   0  0  0  0  0  0  0  0  0  0  0  0
   26.4708   21.7726   15.2735 H   0  0  0  0  0  0  0  0  0  0  0  0
   24.9122   20.9369   15.6578 H   0  0  0  0  0  0  0  0  0  0  0  0
   27.1939   18.1824   17.1585 H   0  0  0  0  0  0  0  0  0  0  0  0
   29.3337   13.2252    7.2512 H   0  0  0  0  0  0  0  0  0  0  0  0
   28.1810   10.5211    3.7232 H   0  0  0  0  0  0  0  0  0  0  0  0
  1  2  1  0
  2  3  1  0
  3  4  2  0
  4  5  1  0
  5  6  1  0
  6  7  2  0
  6  8  2  0
  6  9  1  0
  9 10  1  0
 10 11  2  0
 11 12  1  0
 12 13  2  0
 13 14  1  0
 14 15  2  0
 15 16  1  0
 16 17  1  0
 17 18  2  0
 18 19  1  0
 19 20  2  0
 20 21  1  0
 21 22  2  0
 21 23  1  0
 23 24  1  0
 24 25  1  0
 25 26  1  0
 26 27  1  0
 27 28  1  0
 28 29  2  0
 28 30  1  0
 30 31  1  0
 31 32  2  0
 24 33  1  0
 33 34  2  0
 16 35  2  0
 35 36  1  0
 36 37  2  0
  5 38  1  0
 38 39  2  0
 39  3  1  0
 37 10  1  0
 36 13  1  0
 22 17  1  0
 31 25  1  0
 33 20  1  0
  1 40  1  0
  1 41  1  0
  1 42  1  0
  2 43  1  0
  2 44  1  0
  4 45  1  0
 11 46  1  0
 14 47  1  0
 15 48  1  0
 18 49  1  0
 19 50  1  0
 22 51  1  0
 23 52  1  0
 23 53  1  0
 25 54  1  1
 26 55  1  0
 26 56  1  0
 27 57  1  0
 27 58  1  0
 30 59  1  0
 37 60  1  0
 38 61  1  0
M  END
>  <meeko>  (309) 
{"is_sidechain": [true], "free_energy": -13.19, "intermolecular_energy": 0.0, "internal_energy": -13.19, "cluster_size": 18, "cluster_id": 1, "rank_in_cluster": 1}

>  <_RMSD_MCS_to_ref>  (309) 
1.6882710714000628

$$$$
ligand
     RDKit          3D

 60 65  0  0  0  0  0  0  0  0999 V2000
   24.8710    9.6160    7.7820 C   0  0  0  0  0  0  0  0  0  0  0  0
   25.4240   10.9650    7.3490 C   0  0  0  0  0  0  0  0  0  0  0  0
   24.9760   11.3590    5.9850 C   0  0  0  0  0  0  0  0  0  0  0  0
   24.1630   12.4120    5.6110 C   0  0  0  0  0  0  0  0  0  0  0  0
   24.0440   12.2770    4.2560 N   0  0  0  0  0  0  0  0  0  0  0  0
   23.3380   13.3940    3.2140 S   0  0  0  0  0  6  0  0  0  0  0  0
   23.6020   12.8410    1.8970 O   0  0  0  0  0  0  0  0  0  0  0  0
   21.9710   13.5570    3.6780 O   0  0  0  0  0  0  0  0  0  0  0  0
   24.1530   14.8080    3.3210 O   0  0  0  0  0  0  0  0  0  0  0  0
   25.4700   14.8650    3.7220 C   0  0  0  0  0  0  0  0  0  0  0  0
   26.4810   14.5980    2.8730 C   0  0  0  0  0  0  0  0  0  0  0  0
   27.8680   14.6110    3.3150 C   0  0  0  0  0  0  0  0  0  0  0  0
   28.1350   14.8550    4.6090 C   0  0  0  0  0  0  0  0  0  0  0  0
   27.0800   15.0940    5.4870 N   0  0  0  0  0  0  0  0  0  0  0  0
   27.1070   15.3320    6.8370 C   0  0  0  0  0  0  0  0  0  0  0  0
   25.7890   15.4750    7.2180 C   0  0  0  0  0  0  0  0  0  0  0  0
   25.2990   15.7220    8.5660 C   0  0  0  0  0  0  0  0  0  0  0  0
   24.0650   15.2020    9.0210 C   0  0  0  0  0  0  0  0  0  0  0  0
   23.5920   15.4820   10.3100 C   0  0  0  0  0  0  0  0  0  0  0  0
   24.3770   16.2810   11.1180 C   0  0  0  0  0  0  0  0  0  0  0  0
   25.5940   16.8000   10.6970 C   0  0  0  0  0  0  0  0  0  0  0  0
   26.0650   16.5260    9.4260 C   0  0  0  0  0  0  0  0  0  0  0  0
   26.1920   17.6510   11.7650 C   0  0  0  0  0  0  0  0  0  0  0  0
   25.2510   17.4810   12.8650 N   0  0  0  0  0  0  0  0  0  0  0  0
   25.3190   18.3290   14.0500 C   0  0  2  0  0  0  0  0  0  0  0  0
   25.9800   19.6840   13.7980 C   0  0  0  0  0  0  0  0  0  0  0  0
   25.9400   20.5080   15.0750 C   0  0  0  0  0  0  0  0  0  0  0  0
   26.6040   19.7790   16.2190 C   0  0  0  0  0  0  0  0  0  0  0  0
   27.0700   20.3700   17.1890 O   0  0  0  0  0  0  0  0  0  0  0  0
   26.5910   18.4070   16.1670 N   0  0  0  0  0  0  0  0  0  0  0  0
   26.0050   17.6010   15.2170 C   0  0  0  0  0  0  0  0  0  0  0  0
   25.9660   16.3820   15.3790 O   0  0  0  0  0  0  0  0  0  0  0  0
   24.1300   16.7580   12.4840 C   0  0  0  0  0  0  0  0  0  0  0  0
   23.1100   16.5500   13.1120 O   0  0  0  0  0  0  0  0  0  0  0  0
   24.9530   15.3520    6.1260 N   0  0  0  0  0  0  0  0  0  0  0  0
   25.7440   15.1150    5.1000 C   0  0  0  0  0  0  0  0  0  0  0  0
   24.8560   11.2710    3.8390 C   0  0  0  0  0  0  0  0  0  0  0  0
   25.4000   10.6560    4.8710 N   0  0  0  0  0  0  0  0  0  0  0  0
   24.8497    9.5640    8.8806 H   0  0  0  0  0  0  0  0  0  0  0  0
   23.8507    9.4948    7.3893 H   0  0  0  0  0  0  0  0  0  0  0  0
   25.5127    8.8135    7.3893 H   0  0  0  0  0  0  0  0  0  0  0  0
   25.0870   11.7295    8.0645 H   0  0  0  0  0  0  0  0  0  0  0  0
   26.5207   10.8829    7.3275 H   0  0  0  0  0  0  0  0  0  0  0  0
   23.7145   13.1821    6.2558 H   0  0  0  0  0  0  0  0  0  0  0  0
   26.2536   14.3649    1.8223 H   0  0  0  0  0  0  0  0  0  0  0  0
   28.6840   14.4241    2.6014 H   0  0  0  0  0  0  0  0  0  0  0  0
   29.1738   14.8659    4.9707 H   0  0  0  0  0  0  0  0  0  0  0  0
   27.9955   15.3957    7.4824 H   0  0  0  0  0  0  0  0  0  0  0  0
   23.4663   14.5669    8.3516 H   0  0  0  0  0  0  0  0  0  0  0  0
   22.6314   15.0804   10.6650 H   0  0  0  0  0  0  0  0  0  0  0  0
   27.0304   16.9338    9.0917 H   0  0  0  0  0  0  0  0  0  0  0  0
   27.1956   17.2957   12.0415 H   0  0  0  0  0  0  0  0  0  0  0  0
   26.3314   18.6999   11.4643 H   0  0  0  0  0  0  0  0  0  0  0  0
   24.2747   18.5404   14.3235 H   0  0  0  0  0  0  0  0  0  0  0  0
   27.0254   19.5315   13.4917 H   0  0  0  0  0  0  0  0  0  0  0  0
   25.4399   20.2147   13.0001 H   0  0  0  0  0  0  0  0  0  0  0  0
   26.4643   21.4597   14.9040 H   0  0  0  0  0  0  0  0  0  0  0  0
   24.8875   20.6860   15.3407 H   0  0  0  0  0  0  0  0  0  0  0  0
   27.0796   17.9212   16.9326 H   0  0  0  0  0  0  0  0  0  0  0  0
   25.0350   11.0061    2.7865 H   0  0  0  0  0  0  0  0  0  0  0  0
  1  2  1  0
  2  3  1  0
  3  4  2  0
  4  5  1  0
  5  6  1  0
  6  7  2  0
  6  8  2  0
  6  9  1  0
  9 10  1  0
 10 11  2  0
 11 12  1  0
 12 13  2  0
 13 14  1  0
 14 15  1  0
 15 16  2  0
 16 17  1  0
 17 18  2  0
 18 19  1  0
 19 20  2  0
 20 21  1  0
 21 22  2  0
 21 23  1  0
 23 24  1  0
 24 25  1  0
 25 26  1  0
 26 27  1  0
 27 28  1  0
 28 29  2  0
 28 30  1  0
 30 31  1  0
 31 32  2  0
 24 33  1  0
 33 34  2  0
 16 35  1  0
 35 36  2  0
  5 37  1  0
 37 38  2  0
 38  3  1  0
 36 10  1  0
 36 14  1  0
 22 17  1  0
 31 25  1  0
 33 20  1  0
  1 39  1  0
  1 40  1  0
  1 41  1  0
  2 42  1  0
  2 43  1  0
  4 44  1  0
 11 45  1  0
 12 46  1  0
 13 47  1  0
 15 48  1  0
 18 49  1  0
 19 50  1  0
 22 51  1  0
 23 52  1  0
 23 53  1  0
 25 54  1  1
 26 55  1  0
 26 56  1  0
 27 57  1  0
 27 58  1  0
 30 59  1  0
 37 60  1  0
M  END
>  <meeko>  (310) 
{"is_sidechain": [true], "free_energy": -13.18, "intermolecular_energy": 0.0, "internal_energy": -13.18, "cluster_size": 13, "cluster_id": 1, "rank_in_cluster": 1}

>  <_RMSD_MCS_to_ref>  (310) 
1.633345259533974

$$$$
ligand
     RDKit          3D

 63 68  0  0  0  0  0  0  0  0999 V2000
   24.8710    9.6160    7.7820 C   0  0  0  0  0  0  0  0  0  0  0  0
   25.4240   10.9650    7.3490 C   0  0  0  0  0  0  0  0  0  0  0  0
   26.8210   11.1770    7.8200 C   0  0  0  0  0  0  0  0  0  0  0  0
   27.2860   12.0190    8.8100 C   0  0  0  0  0  0  0  0  0  0  0  0
   28.6340   11.7920    8.8420 N   0  0  0  0  0  0  0  0  0  0  0  0
   29.7670   12.7770    9.6170 S   0  0  0  0  0  6  0  0  0  0  0  0
   31.0530   12.3110    9.1340 O   0  0  0  0  0  0  0  0  0  0  0  0
   29.4080   12.7080   11.0210 O   0  0  0  0  0  0  0  0  0  0  0  0
   29.4570   14.2880    9.0740 O   0  0  0  0  0  0  0  0  0  0  0  0
   28.9020   14.4370    7.8270 C   0  0  0  0  0  0  0  0  0  0  0  0
   29.6540   14.0330    6.7240 C   0  0  0  0  0  0  0  0  0  0  0  0
   29.0910   14.2290    5.4790 C   0  0  0  0  0  0  0  0  0  0  0  0
   27.8440   14.8060    5.2950 C   0  0  0  0  0  0  0  0  0  0  0  0
   27.1030   15.2220    6.3940 C   0  0  0  0  0  0  0  0  0  0  0  0
   27.6270   15.0480    7.6930 C   0  0  0  0  0  0  0  0  0  0  0  0
   26.8390   15.4750    8.8680 C   0  0  0  0  0  0  0  0  0  0  0  0
   25.5990   14.8500    9.1590 C   0  0  0  0  0  0  0  0  0  0  0  0
   24.8510   15.1940   10.2890 C   0  0  0  0  0  0  0  0  0  0  0  0
   25.3740   16.1580   11.1240 C   0  0  0  0  0  0  0  0  0  0  0  0
   26.5870   16.7920   10.8700 C   0  0  0  0  0  0  0  0  0  0  0  0
   27.3200   16.4760    9.7380 C   0  0  0  0  0  0  0  0  0  0  0  0
   26.9010   17.7530   11.9700 C   0  0  0  0  0  0  0  0  0  0  0  0
   25.7910   17.5460   12.8920 N   0  0  0  0  0  0  0  0  0  0  0  0
   25.5740   18.3480   14.0880 C   0  0  1  0  0  0  0  0  0  0  0  0
   26.3040   17.7830   15.3030 C   0  0  0  0  0  0  0  0  0  0  0  0
   25.9590   18.6120   16.5310 C   0  0  0  0  0  0  0  0  0  0  0  0
   26.2800   20.0720   16.3080 C   0  0  0  0  0  0  0  0  0  0  0  0
   26.7020   20.7970   17.2030 O   0  0  0  0  0  0  0  0  0  0  0  0
   26.0570   20.5640   15.0460 N   0  0  0  0  0  0  0  0  0  0  0  0
   25.9810   19.8170   13.8920 C   0  0  0  0  0  0  0  0  0  0  0  0
   26.2360   20.3310   12.8050 O   0  0  0  0  0  0  0  0  0  0  0  0
   24.8430   16.6710   12.3910 C   0  0  0  0  0  0  0  0  0  0  0  0
   23.7760   16.3550   12.8790 O   0  0  0  0  0  0  0  0  0  0  0  0
   27.4680   14.9090    3.8500 C   0  0  0  0  0  0  0  0  0  0  0  0
   28.6620   14.2970    3.0990 C   0  0  0  0  0  0  0  0  0  0  0  0
   29.6460   13.9050    4.1720 C   0  0  0  0  0  0  0  0  0  0  0  0
   30.7410   13.3990    4.0040 O   0  0  0  0  0  0  0  0  0  0  0  0
   28.9520   10.8990    7.8680 C   0  0  0  0  0  0  0  0  0  0  0  0
   27.8700   10.5010    7.2320 N   0  0  0  0  0  0  0  0  0  0  0  0
   24.8497    9.5640    8.8806 H   0  0  0  0  0  0  0  0  0  0  0  0
   23.8507    9.4948    7.3893 H   0  0  0  0  0  0  0  0  0  0  0  0
   25.5127    8.8135    7.3893 H   0  0  0  0  0  0  0  0  0  0  0  0
   25.4085   11.0183    6.2504 H   0  0  0  0  0  0  0  0  0  0  0  0
   24.7940   11.7479    7.7963 H   0  0  0  0  0  0  0  0  0  0  0  0
   26.7041   12.7149    9.4322 H   0  0  0  0  0  0  0  0  0  0  0  0
   30.6493   13.5794    6.8408 H   0  0  0  0  0  0  0  0  0  0  0  0
   26.1147   15.6838    6.2528 H   0  0  0  0  0  0  0  0  0  0  0  0
   25.2164   14.0752    8.4783 H   0  0  0  0  0  0  0  0  0  0  0  0
   23.8843   14.7148   10.5030 H   0  0  0  0  0  0  0  0  0  0  0  0
   28.2635   16.9980    9.5205 H   0  0  0  0  0  0  0  0  0  0  0  0
   27.8635   17.5131   12.4455 H   0  0  0  0  0  0  0  0  0  0  0  0
   27.0013   18.7940   11.6292 H   0  0  0  0  0  0  0  0  0  0  0  0
   24.4905   18.3057   14.2732 H   0  0  0  0  0  0  0  0  0  0  0  0
   25.9937   16.7402   15.4653 H   0  0  0  0  0  0  0  0  0  0  0  0
   27.3895   17.8190   15.1287 H   0  0  0  0  0  0  0  0  0  0  0  0
   24.8849   18.5086   16.7444 H   0  0  0  0  0  0  0  0  0  0  0  0
   26.5578   18.2476   17.3788 H   0  0  0  0  0  0  0  0  0  0  0  0
   25.9357   21.5827   14.9543 H   0  0  0  0  0  0  0  0  0  0  0  0
   26.5478   14.3419    3.6459 H   0  0  0  0  0  0  0  0  0  0  0  0
   27.2662   15.9456    3.5424 H   0  0  0  0  0  0  0  0  0  0  0  0
   28.3449   13.4137    2.5252 H   0  0  0  0  0  0  0  0  0  0  0  0
   29.0998   15.0034    2.3783 H   0  0  0  0  0  0  0  0  0  0  0  0
   29.9725   10.5561    7.6422 H   0  0  0  0  0  0  0  0  0  0  0  0
  1  2  1  0
  2  3  1  0
  3  4  2  0
  4  5  1  0
  5  6  1  0
  6  7  2  0
  6  8  2  0
  6  9  1  0
  9 10  1  0
 10 11  2  0
 11 12  1  0
 12 13  2  0
 13 14  1  0
 14 15  2  0
 15 16  1  0
 16 17  2  0
 17 18  1  0
 18 19  2  0
 19 20  1  0
 20 21  2  0
 20 22  1  0
 22 23  1  0
 23 24  1  0
 24 25  1  0
 25 26  1  0
 26 27  1  0
 27 28  2  0
 27 29  1  0
 29 30  1  0
 30 31  2  0
 23 32  1  0
 32 33  2  0
 13 34  1  0
 34 35  1  0
 35 36  1  0
 36 37  2  0
  5 38  1  0
 38 39  2  0
 39  3  1  0
 15 10  1  0
 21 16  1  0
 30 24  1  0
 36 12  1  0
 32 19  1  0
  1 40  1  0
  1 41  1  0
  1 42  1  0
  2 43  1  0
  2 44  1  0
  4 45  1  0
 11 46  1  0
 14 47  1  0
 17 48  1  0
 18 49  1  0
 21 50  1  0
 22 51  1  0
 22 52  1  0
 24 53  1  1
 25 54  1  0
 25 55  1  0
 26 56  1  0
 26 57  1  0
 29 58  1  0
 34 59  1  0
 34 60  1  0
 35 61  1  0
 35 62  1  0
 38 63  1  0
M  END
>  <meeko>  (311) 
{"is_sidechain": [true], "free_energy": -13.18, "intermolecular_energy": 0.0, "internal_energy": -13.18, "cluster_size": 13, "cluster_id": 1, "rank_in_cluster": 1}

>  <_RMSD_MCS_to_ref>  (311) 
1.2706439933729416

$$$$
ligand
     RDKit          3D

 54 58  0  0  0  0  0  0  0  0999 V2000
   24.8710    9.6160    7.7820 C   0  0  0  0  0  0  0  0  0  0  0  0
   25.4240   10.9650    7.3490 C   0  0  0  0  0  0  0  0  0  0  0  0
   26.8720   11.1050    7.6630 C   0  0  0  0  0  0  0  0  0  0  0  0
   27.4900   11.9630    8.5520 C   0  0  0  0  0  0  0  0  0  0  0  0
   28.8150   11.6410    8.4610 N   0  0  0  0  0  0  0  0  0  0  0  0
   30.0880   12.5070    9.1450 S   0  0  0  0  0  6  0  0  0  0  0  0
   31.2520   12.1350    8.3620 O   0  0  0  0  0  0  0  0  0  0  0  0
   30.0090   12.2210   10.5660 O   0  0  0  0  0  0  0  0  0  0  0  0
   29.7510   14.0780    8.8920 O   0  0  0  0  0  0  0  0  0  0  0  0
   28.5230   14.5430    9.0570 C   0  0  0  0  0  0  0  0  0  0  0  0
   27.6520   14.7130   10.1120 C   0  0  0  0  0  0  0  0  0  0  0  0
   26.4720   15.2910    9.5700 C   0  0  0  0  0  0  0  0  0  0  0  0
   25.2340   15.6550   10.2240 C   0  0  0  0  0  0  0  0  0  0  0  0
   24.0050   15.3630    9.6050 C   0  0  0  0  0  0  0  0  0  0  0  0
   22.7810   15.7050   10.2120 C   0  0  0  0  0  0  0  0  0  0  0  0
   22.7610   16.3380   11.4530 C   0  0  0  0  0  0  0  0  0  0  0  0
   23.9790   16.6020   12.0510 C   0  0  0  0  0  0  0  0  0  0  0  0
   25.2020   16.2760   11.4650 C   0  0  0  0  0  0  0  0  0  0  0  0
   26.3130   16.6920   12.3730 C   0  0  0  0  0  0  0  0  0  0  0  0
   25.6100   17.1810   13.5510 N   0  0  0  0  0  0  0  0  0  0  0  0
   26.3150   17.9010   14.6060 C   0  0  2  0  0  0  0  0  0  0  0  0
   25.6450   17.8000   15.9770 C   0  0  0  0  0  0  0  0  0  0  0  0
   26.4920   18.5310   17.0070 C   0  0  0  0  0  0  0  0  0  0  0  0
   26.7150   19.9720   16.6100 C   0  0  0  0  0  0  0  0  0  0  0  0
   26.9880   20.8420   17.4320 O   0  0  0  0  0  0  0  0  0  0  0  0
   26.6810   20.2550   15.2680 N   0  0  0  0  0  0  0  0  0  0  0  0
   26.5360   19.3730   14.2220 C   0  0  0  0  0  0  0  0  0  0  0  0
   26.6870   19.7540   13.0610 O   0  0  0  0  0  0  0  0  0  0  0  0
   24.2410   17.2350   13.3470 C   0  0  0  0  0  0  0  0  0  0  0  0
   23.3870   17.7170   14.0650 O   0  0  0  0  0  0  0  0  0  0  0  0
   26.6980   15.4040    8.2150 C   0  0  0  0  0  0  0  0  0  0  0  0
   27.9450   14.9650    7.9010 O   0  0  0  0  0  0  0  0  0  0  0  0
   28.9770   10.6960    7.5000 C   0  0  0  0  0  0  0  0  0  0  0  0
   27.8110   10.3280    7.0120 N   0  0  0  0  0  0  0  0  0  0  0  0
   24.8497    9.5640    8.8806 H   0  0  0  0  0  0  0  0  0  0  0  0
   23.8507    9.4948    7.3893 H   0  0  0  0  0  0  0  0  0  0  0  0
   25.5127    8.8135    7.3893 H   0  0  0  0  0  0  0  0  0  0  0  0
   25.2847   11.0732    6.2632 H   0  0  0  0  0  0  0  0  0  0  0  0
   24.8812   11.7460    7.9015 H   0  0  0  0  0  0  0  0  0  0  0  0
   27.0227   12.7297    9.1875 H   0  0  0  0  0  0  0  0  0  0  0  0
   27.8342   14.4528   11.1651 H   0  0  0  0  0  0  0  0  0  0  0  0
   23.9999   14.8577    8.6279 H   0  0  0  0  0  0  0  0  0  0  0  0
   21.8345   15.4708    9.7029 H   0  0  0  0  0  0  0  0  0  0  0  0
   21.8136   16.6166   11.9377 H   0  0  0  0  0  0  0  0  0  0  0  0
   26.9586   15.8376   12.6245 H   0  0  0  0  0  0  0  0  0  0  0  0
   26.9803   17.4427   11.9246 H   0  0  0  0  0  0  0  0  0  0  0  0
   27.2905   17.4017   14.7019 H   0  0  0  0  0  0  0  0  0  0  0  0
   24.6457   18.2575   15.9319 H   0  0  0  0  0  0  0  0  0  0  0  0
   25.5498   16.7421   16.2629 H   0  0  0  0  0  0  0  0  0  0  0  0
   25.9782   18.5024   17.9792 H   0  0  0  0  0  0  0  0  0  0  0  0
   27.4704   18.0322   17.0697 H   0  0  0  0  0  0  0  0  0  0  0  0
   26.7755   21.2483   15.0125 H   0  0  0  0  0  0  0  0  0  0  0  0
   25.9702   15.7951    7.4889 H   0  0  0  0  0  0  0  0  0  0  0  0
   29.9476   10.2937    7.1743 H   0  0  0  0  0  0  0  0  0  0  0  0
  1  2  1  0
  2  3  1  0
  3  4  2  0
  4  5  1  0
  5  6  1  0
  6  7  2  0
  6  8  2  0
  6  9  1  0
  9 10  1  0
 10 11  2  0
 11 12  1  0
 12 13  1  0
 13 14  2  0
 14 15  1  0
 15 16  2  0
 16 17  1  0
 17 18  2  0
 18 19  1  0
 19 20  1  0
 20 21  1  0
 21 22  1  0
 22 23  1  0
 23 24  1  0
 24 25  2  0
 24 26  1  0
 26 27  1  0
 27 28  2  0
 20 29  1  0
 29 30  2  0
 12 31  2  0
 31 32  1  0
  5 33  1  0
 33 34  2  0
 34  3  1  0
 32 10  1  0
 18 13  1  0
 27 21  1  0
 29 17  1  0
  1 35  1  0
  1 36  1  0
  1 37  1  0
  2 38  1  0
  2 39  1  0
  4 40  1  0
 11 41  1  0
 14 42  1  0
 15 43  1  0
 16 44  1  0
 19 45  1  0
 19 46  1  0
 21 47  1  1
 22 48  1  0
 22 49  1  0
 23 50  1  0
 23 51  1  0
 26 52  1  0
 31 53  1  0
 33 54  1  0
M  END
>  <meeko>  (312) 
{"is_sidechain": [true], "free_energy": -13.18, "intermolecular_energy": 0.0, "internal_energy": -13.18, "cluster_size": 16, "cluster_id": 1, "rank_in_cluster": 1}

>  <_RMSD_MCS_to_ref>  (312) 
1.1977277561189683

$$$$
ligand
     RDKit          3D

 56 60  0  0  0  0  0  0  0  0999 V2000
   24.8540    9.4020    7.6050 C   0  0  0  0  0  0  0  0  0  0  0  0
   25.5230   10.7550    7.4270 C   0  0  0  0  0  0  0  0  0  0  0  0
   27.0050   10.6700    7.5340 C   0  0  0  0  0  0  0  0  0  0  0  0
   27.9350   11.6880    7.4730 C   0  0  0  0  0  0  0  0  0  0  0  0
   29.1400   11.0550    7.6050 N   0  0  0  0  0  0  0  0  0  0  0  0
   30.6280   11.8310    7.8390 S   0  0  0  0  0  6  0  0  0  0  0  0
   31.4220   11.3800    6.7080 O   0  0  0  0  0  0  0  0  0  0  0  0
   31.0310   11.5060    9.1950 O   0  0  0  0  0  0  0  0  0  0  0  0
   30.4270   13.4430    7.6750 O   0  0  0  0  0  0  0  0  0  0  0  0
   29.3170   14.0130    8.2340 C   0  0  0  0  0  0  0  0  0  0  0  0
   28.5280   14.8240    7.4380 C   0  0  0  0  0  0  0  0  0  0  0  0
   27.3190   15.2790    7.9630 C   0  0  0  0  0  0  0  0  0  0  0  0
   26.9450   14.9290    9.2650 C   0  0  0  0  0  0  0  0  0  0  0  0
   25.6370   15.2850    9.8140 C   0  0  0  0  0  0  0  0  0  0  0  0
   24.4450   14.7570    9.2790 C   0  0  0  0  0  0  0  0  0  0  0  0
   23.1850   15.0880    9.8150 C   0  0  0  0  0  0  0  0  0  0  0  0
   23.0810   15.9510   10.9040 C   0  0  0  0  0  0  0  0  0  0  0  0
   24.2560   16.4610   11.4210 C   0  0  0  0  0  0  0  0  0  0  0  0
   25.5130   16.1480   10.9020 C   0  0  0  0  0  0  0  0  0  0  0  0
   26.5730   16.8280   11.7130 C   0  0  0  0  0  0  0  0  0  0  0  0
   25.7970   17.6230   12.6550 N   0  0  0  0  0  0  0  0  0  0  0  0
   26.3840   18.2810   13.8150 C   0  0  2  0  0  0  0  0  0  0  0  0
   25.9610   17.6400   15.1340 C   0  0  0  0  0  0  0  0  0  0  0  0
   26.6790   18.3250   16.2870 C   0  0  0  0  0  0  0  0  0  0  0  0
   26.4430   19.8170   16.2720 C   0  0  0  0  0  0  0  0  0  0  0  0
   26.3460   20.4800   17.3000 O   0  0  0  0  0  0  0  0  0  0  0  0
   26.3650   20.4160   15.0400 N   0  0  0  0  0  0  0  0  0  0  0  0
   26.0470   19.7810   13.8610 C   0  0  0  0  0  0  0  0  0  0  0  0
   25.5220   20.4070   12.9430 O   0  0  0  0  0  0  0  0  0  0  0  0
   24.4390   17.3660   12.5620 C   0  0  0  0  0  0  0  0  0  0  0  0
   23.5450   17.7880   13.2700 O   0  0  0  0  0  0  0  0  0  0  0  0
   27.8570   14.1740    9.9970 C   0  0  0  0  0  0  0  0  0  0  0  0
   29.0270   13.7000    9.5080 N   0  0  0  0  0  0  0  0  0  0  0  0
   28.9220    9.7230    7.7700 C   0  0  0  0  0  0  0  0  0  0  0  0
   27.6310    9.4550    7.7400 N   0  0  0  0  0  0  0  0  0  0  0  0
   24.7464    9.1845    8.6779 H   0  0  0  0  0  0  0  0  0  0  0  0
   23.8606    9.4192    7.1330 H   0  0  0  0  0  0  0  0  0  0  0  0
   25.4708    8.6230    7.1330 H   0  0  0  0  0  0  0  0  0  0  0  0
   25.2620   11.1510    6.4345 H   0  0  0  0  0  0  0  0  0  0  0  0
   25.1647   11.4161    8.2298 H   0  0  0  0  0  0  0  0  0  0  0  0
   27.7490   12.7648    7.3468 H   0  0  0  0  0  0  0  0  0  0  0  0
   28.8448   15.1015    6.4218 H   0  0  0  0  0  0  0  0  0  0  0  0
   26.6590   15.9134    7.3532 H   0  0  0  0  0  0  0  0  0  0  0  0
   24.4998   14.0696    8.4220 H   0  0  0  0  0  0  0  0  0  0  0  0
   22.2744   14.6610    9.3695 H   0  0  0  0  0  0  0  0  0  0  0  0
   22.1037   16.2152   11.3342 H   0  0  0  0  0  0  0  0  0  0  0  0
   27.2023   16.0942   12.2378 H   0  0  0  0  0  0  0  0  0  0  0  0
   27.2686   17.4268   11.1067 H   0  0  0  0  0  0  0  0  0  0  0  0
   27.4704   18.1557   13.6966 H   0  0  0  0  0  0  0  0  0  0  0  0
   24.8741   17.7498   15.2625 H   0  0  0  0  0  0  0  0  0  0  0  0
   26.2241   16.5720   15.1224 H   0  0  0  0  0  0  0  0  0  0  0  0
   26.3066   17.9129   17.2365 H   0  0  0  0  0  0  0  0  0  0  0  0
   27.7587   18.1433   16.1806 H   0  0  0  0  0  0  0  0  0  0  0  0
   26.5610   21.4261   14.9936 H   0  0  0  0  0  0  0  0  0  0  0  0
   27.6101   13.9469   11.0446 H   0  0  0  0  0  0  0  0  0  0  0  0
   29.7137    8.9721    7.9094 H   0  0  0  0  0  0  0  0  0  0  0  0
  1  2  1  0
  2  3  1  0
  3  4  2  0
  4  5  1  0
  5  6  1  0
  6  7  2  0
  6  8  2  0
  6  9  1  0
  9 10  1  0
 10 11  2  0
 11 12  1  0
 12 13  2  0
 13 14  1  0
 14 15  2  0
 15 16  1  0
 16 17  2  0
 17 18  1  0
 18 19  2  0
 19 20  1  0
 20 21  1  0
 21 22  1  0
 22 23  1  0
 23 24  1  0
 24 25  1  0
 25 26  2  0
 25 27  1  0
 27 28  1  0
 28 29  2  0
 21 30  1  0
 30 31  2  0
 13 32  1  0
 32 33  2  0
  5 34  1  0
 34 35  2  0
 35  3  1  0
 33 10  1  0
 19 14  1  0
 28 22  1  0
 30 18  1  0
  1 36  1  0
  1 37  1  0
  1 38  1  0
  2 39  1  0
  2 40  1  0
  4 41  1  0
 11 42  1  0
 12 43  1  0
 15 44  1  0
 16 45  1  0
 17 46  1  0
 20 47  1  0
 20 48  1  0
 22 49  1  6
 23 50  1  0
 23 51  1  0
 24 52  1  0
 24 53  1  0
 27 54  1  0
 32 55  1  0
 34 56  1  0
M  END
>  <meeko>  (313) 
{"is_sidechain": [true], "free_energy": -13.17, "intermolecular_energy": 0.0, "internal_energy": -13.17, "cluster_size": 15, "cluster_id": 1, "rank_in_cluster": 1}

>  <_RMSD_MCS_to_ref>  (313) 
1.0301638488879106

$$$$
ligand
     RDKit          3D

 59 64  0  0  0  0  0  0  0  0999 V2000
   24.8710    9.6160    7.7820 C   0  0  0  0  0  0  0  0  0  0  0  0
   25.4240   10.9650    7.3490 C   0  0  0  0  0  0  0  0  0  0  0  0
   26.8520   10.8810    6.9420 C   0  0  0  0  0  0  0  0  0  0  0  0
   27.5650   11.7070    6.0940 C   0  0  0  0  0  0  0  0  0  0  0  0
   28.8190   11.1660    6.0790 N   0  0  0  0  0  0  0  0  0  0  0  0
   30.1470   11.7970    5.2550 S   0  0  0  0  0  6  0  0  0  0  0  0
   31.3240   11.3010    5.9450 O   0  0  0  0  0  0  0  0  0  0  0  0
   29.8960   11.4300    3.8710 O   0  0  0  0  0  0  0  0  0  0  0  0
   30.1020   13.4240    5.3400 O   0  0  0  0  0  0  0  0  0  0  0  0
   29.1230   14.1170    6.0240 C   0  0  0  0  0  0  0  0  0  0  0  0
   28.2900   14.8920    5.3060 C   0  0  0  0  0  0  0  0  0  0  0  0
   27.2960   15.5860    5.9640 N   0  0  0  0  0  0  0  0  0  0  0  0
   26.3100   16.4200    5.5180 C   0  0  0  0  0  0  0  0  0  0  0  0
   25.5620   16.8570    6.5110 N   0  0  0  0  0  0  0  0  0  0  0  0
   26.1050   16.3040    7.6550 C   0  0  0  0  0  0  0  0  0  0  0  0
   25.5570   16.5570    8.9740 C   0  0  0  0  0  0  0  0  0  0  0  0
   24.2230   16.2160    9.2940 C   0  0  0  0  0  0  0  0  0  0  0  0
   23.7040   16.4620   10.5700 C   0  0  0  0  0  0  0  0  0  0  0  0
   24.5490   17.0330   11.5010 C   0  0  0  0  0  0  0  0  0  0  0  0
   25.8710   17.3620   11.2150 C   0  0  0  0  0  0  0  0  0  0  0  0
   26.3910   17.1260    9.9540 C   0  0  0  0  0  0  0  0  0  0  0  0
   26.5210   17.9630   12.4170 C   0  0  0  0  0  0  0  0  0  0  0  0
   25.4750   17.8620   13.4270 N   0  0  0  0  0  0  0  0  0  0  0  0
   25.5320   18.5420   14.7140 C   0  0  1  0  0  0  0  0  0  0  0  0
   26.5680   17.9300   15.6520 C   0  0  0  0  0  0  0  0  0  0  0  0
   26.5070   18.6330   17.0000 C   0  0  0  0  0  0  0  0  0  0  0  0
   26.6930   20.1240   16.8470 C   0  0  0  0  0  0  0  0  0  0  0  0
   27.2950   20.7990   17.6760 O   0  0  0  0  0  0  0  0  0  0  0  0
   26.1360   20.7010   15.7340 N   0  0  0  0  0  0  0  0  0  0  0  0
   25.8190   20.0460   14.5660 C   0  0  0  0  0  0  0  0  0  0  0  0
   25.7890   20.6580   13.5000 O   0  0  0  0  0  0  0  0  0  0  0  0
   24.2810   17.3940   12.8970 C   0  0  0  0  0  0  0  0  0  0  0  0
   23.2030   17.2890   13.4520 O   0  0  0  0  0  0  0  0  0  0  0  0
   27.1640   15.4900    7.3250 C   0  0  0  0  0  0  0  0  0  0  0  0
   28.0680   14.6270    8.0210 C   0  0  0  0  0  0  0  0  0  0  0  0
   29.0080   13.9730    7.3940 N   0  0  0  0  0  0  0  0  0  0  0  0
   28.8480   10.0770    6.8890 C   0  0  0  0  0  0  0  0  0  0  0  0
   27.6620    9.8730    7.4280 N   0  0  0  0  0  0  0  0  0  0  0  0
   24.8497    9.5640    8.8806 H   0  0  0  0  0  0  0  0  0  0  0  0
   23.8507    9.4948    7.3893 H   0  0  0  0  0  0  0  0  0  0  0  0
   25.5127    8.8135    7.3893 H   0  0  0  0  0  0  0  0  0  0  0  0
   24.8336   11.3332    6.4970 H   0  0  0  0  0  0  0  0  0  0  0  0
   25.3567   11.6495    8.2075 H   0  0  0  0  0  0  0  0  0  0  0  0
   27.2053   12.5959    5.5550 H   0  0  0  0  0  0  0  0  0  0  0  0
   28.3996   14.9708    4.2143 H   0  0  0  0  0  0  0  0  0  0  0  0
   26.1595   16.6924    4.4629 H   0  0  0  0  0  0  0  0  0  0  0  0
   23.5839   15.7507    8.5291 H   0  0  0  0  0  0  0  0  0  0  0  0
   22.6632   16.2103   10.8217 H   0  0  0  0  0  0  0  0  0  0  0  0
   27.4363   17.3785    9.7225 H   0  0  0  0  0  0  0  0  0  0  0  0
   27.4145   17.3932   12.7121 H   0  0  0  0  0  0  0  0  0  0  0  0
   26.8752   18.9917   12.2549 H   0  0  0  0  0  0  0  0  0  0  0  0
   24.5331   18.4093   15.1550 H   0  0  0  0  0  0  0  0  0  0  0  0
   26.3543   16.8594   15.7864 H   0  0  0  0  0  0  0  0  0  0  0  0
   27.5722   18.0511   15.2196 H   0  0  0  0  0  0  0  0  0  0  0  0
   25.5277   18.4391   17.4619 H   0  0  0  0  0  0  0  0  0  0  0  0
   27.3181   18.2438   17.6330 H   0  0  0  0  0  0  0  0  0  0  0  0
   25.9381   21.7109   15.7762 H   0  0  0  0  0  0  0  0  0  0  0  0
   27.9688   14.5117    9.1104 H   0  0  0  0  0  0  0  0  0  0  0  0
   29.7355    9.4529    7.0701 H   0  0  0  0  0  0  0  0  0  0  0  0
  1  2  1  0
  2  3  1  0
  3  4  2  0
  4  5  1  0
  5  6  1  0
  6  7  2  0
  6  8  2  0
  6  9  1  0
  9 10  1  0
 10 11  2  0
 11 12  1  0
 12 13  1  0
 13 14  2  0
 14 15  1  0
 15 16  1  0
 16 17  2  0
 17 18  1  0
 18 19  2  0
 19 20  1  0
 20 21  2  0
 20 22  1  0
 22 23  1  0
 23 24  1  0
 24 25  1  0
 25 26  1  0
 26 27  1  0
 27 28  2  0
 27 29  1  0
 29 30  1  0
 30 31  2  0
 23 32  1  0
 32 33  2  0
 15 34  2  0
 34 35  1  0
 35 36  2  0
  5 37  1  0
 37 38  2  0
 38  3  1  0
 36 10  1  0
 34 12  1  0
 21 16  1  0
 30 24  1  0
 32 19  1  0
  1 39  1  0
  1 40  1  0
  1 41  1  0
  2 42  1  0
  2 43  1  0
  4 44  1  0
 11 45  1  0
 13 46  1  0
 17 47  1  0
 18 48  1  0
 21 49  1  0
 22 50  1  0
 22 51  1  0
 24 52  1  1
 25 53  1  0
 25 54  1  0
 26 55  1  0
 26 56  1  0
 29 57  1  0
 35 58  1  0
 37 59  1  0
M  END
>  <meeko>  (314) 
{"is_sidechain": [true], "free_energy": -13.17, "intermolecular_energy": 0.0, "internal_energy": -13.17, "cluster_size": 19, "cluster_id": 1, "rank_in_cluster": 1}

>  <_RMSD_MCS_to_ref>  (314) 
0.9062945379255494

$$$$
ligand
     RDKit          3D

 63 68  0  0  0  0  0  0  0  0999 V2000
   24.8710    9.6160    7.7820 C   0  0  0  0  0  0  0  0  0  0  0  0
   25.4240   10.9650    7.3490 C   0  0  0  0  0  0  0  0  0  0  0  0
   26.8910   11.0710    7.5720 C   0  0  0  0  0  0  0  0  0  0  0  0
   27.6170   12.1190    8.1030 C   0  0  0  0  0  0  0  0  0  0  0  0
   28.9080   11.6690    8.0970 N   0  0  0  0  0  0  0  0  0  0  0  0
   30.2670   12.5950    8.4480 S   0  0  0  0  0  6  0  0  0  0  0  0
   31.3050   11.5870    8.5960 O   0  0  0  0  0  0  0  0  0  0  0  0
   29.9450   13.4780    9.5520 O   0  0  0  0  0  0  0  0  0  0  0  0
   30.6740   13.5600    6.9970 C   0  0  0  0  0  0  0  0  0  0  0  0
   32.0210   13.4520    6.5890 C   0  0  0  0  0  0  0  0  0  0  0  0
   32.4660   14.0260    5.4010 C   0  0  0  0  0  0  0  0  0  0  0  0
   31.5720   14.7160    4.5950 C   0  0  0  0  0  0  0  0  0  0  0  0
   30.2390   14.8530    4.9900 C   0  0  0  0  0  0  0  0  0  0  0  0
   29.7700   14.2950    6.2000 C   0  0  0  0  0  0  0  0  0  0  0  0
   28.4240   14.5660    6.5720 N   0  0  0  0  0  0  0  0  0  0  0  0
   27.3020   14.5560    5.7720 C   0  0  0  0  0  0  0  0  0  0  0  0
   26.2460   14.9460    6.5600 C   0  0  0  0  0  0  0  0  0  0  0  0
   26.8030   15.1860    7.8370 C   0  0  0  0  0  0  0  0  0  0  0  0
   26.1310   15.6410    9.0570 C   0  0  0  0  0  0  0  0  0  0  0  0
   24.7840   15.2920    9.3150 C   0  0  0  0  0  0  0  0  0  0  0  0
   24.1350   15.7190   10.4790 C   0  0  0  0  0  0  0  0  0  0  0  0
   24.8620   16.4880   11.3660 C   0  0  0  0  0  0  0  0  0  0  0  0
   26.1860   16.8470   11.1390 C   0  0  0  0  0  0  0  0  0  0  0  0
   26.8330   16.4330    9.9870 C   0  0  0  0  0  0  0  0  0  0  0  0
   26.6870   17.6910   12.2610 C   0  0  0  0  0  0  0  0  0  0  0  0
   25.5660   17.6820   13.1910 N   0  0  0  0  0  0  0  0  0  0  0  0
   25.5400   18.5600   14.3550 C   0  0  2  0  0  0  0  0  0  0  0  0
   26.1270   19.9460   14.0920 C   0  0  0  0  0  0  0  0  0  0  0  0
   25.9960   20.7950   15.3470 C   0  0  0  0  0  0  0  0  0  0  0  0
   26.6620   20.1330   16.5300 C   0  0  0  0  0  0  0  0  0  0  0  0
   27.0530   20.7710   17.5030 O   0  0  0  0  0  0  0  0  0  0  0  0
   26.7380   18.7620   16.5060 N   0  0  0  0  0  0  0  0  0  0  0  0
   26.2250   17.9020   15.5620 C   0  0  0  0  0  0  0  0  0  0  0  0
   26.2410   16.6870   15.7590 O   0  0  0  0  0  0  0  0  0  0  0  0
   24.4470   17.0680   12.6480 C   0  0  0  0  0  0  0  0  0  0  0  0
   23.3190   17.0110   13.1000 O   0  0  0  0  0  0  0  0  0  0  0  0
   28.1180   14.9330    7.8230 N   0  0  0  0  0  0  0  0  0  0  0  0
   28.9490   10.4560    7.4880 C   0  0  0  0  0  0  0  0  0  0  0  0
   27.7310   10.0420    7.1950 N   0  0  0  0  0  0  0  0  0  0  0  0
   24.8497    9.5640    8.8806 H   0  0  0  0  0  0  0  0  0  0  0  0
   23.8507    9.4948    7.3893 H   0  0  0  0  0  0  0  0  0  0  0  0
   25.5127    8.8135    7.3893 H   0  0  0  0  0  0  0  0  0  0  0  0
   25.2180   11.1045    6.2775 H   0  0  0  0  0  0  0  0  0  0  0  0
   24.9341   11.7404    7.9562 H   0  0  0  0  0  0  0  0  0  0  0  0
   27.2423   13.0929    8.4511 H   0  0  0  0  0  0  0  0  0  0  0  0
   32.7336   12.9033    7.2224 H   0  0  0  0  0  0  0  0  0  0  0  0
   33.5208   13.9329    5.1031 H   0  0  0  0  0  0  0  0  0  0  0  0
   31.9126   15.1549    3.6456 H   0  0  0  0  0  0  0  0  0  0  0  0
   29.5403   15.4067    4.3456 H   0  0  0  0  0  0  0  0  0  0  0  0
   27.2598   14.2872    4.7062 H   0  0  0  0  0  0  0  0  0  0  0  0
   25.1925   15.0494    6.2611 H   0  0  0  0  0  0  0  0  0  0  0  0
   24.2373   14.6740    8.5875 H   0  0  0  0  0  0  0  0  0  0  0  0
   23.0868   15.4525   10.6795 H   0  0  0  0  0  0  0  0  0  0  0  0
   27.8790   16.7181    9.8008 H   0  0  0  0  0  0  0  0  0  0  0  0
   27.5856   17.2511   12.7181 H   0  0  0  0  0  0  0  0  0  0  0  0
   26.9872   18.7018   11.9477 H   0  0  0  0  0  0  0  0  0  0  0  0
   24.4759   18.7149   14.5865 H   0  0  0  0  0  0  0  0  0  0  0  0
   27.1892   19.8499   13.8228 H   0  0  0  0  0  0  0  0  0  0  0  0
   25.5827   20.4253   13.2650 H   0  0  0  0  0  0  0  0  0  0  0  0
   26.4696   21.7719   15.1697 H   0  0  0  0  0  0  0  0  0  0  0  0
   24.9265   20.9161   15.5739 H   0  0  0  0  0  0  0  0  0  0  0  0
   27.2407   18.3236   17.2909 H   0  0  0  0  0  0  0  0  0  0  0  0
   29.8702    9.8961    7.2692 H   0  0  0  0  0  0  0  0  0  0  0  0
  1  2  1  0
  2  3  1  0
  3  4  2  0
  4  5  1  0
  5  6  1  0
  6  7  2  0
  6  8  2  0
  6  9  1  0
  9 10  2  0
 10 11  1  0
 11 12  2  0
 12 13  1  0
 13 14  2  0
 14 15  1  0
 15 16  1  0
 16 17  2  0
 17 18  1  0
 18 19  1  0
 19 20  2  0
 20 21  1  0
 21 22  2  0
 22 23  1  0
 23 24  2  0
 23 25  1  0
 25 26  1  0
 26 27  1  0
 27 28  1  0
 28 29  1  0
 29 30  1  0
 30 31  2  0
 30 32  1  0
 32 33  1  0
 33 34  2  0
 26 35  1  0
 35 36  2  0
 18 37  2  0
  5 38  1  0
 38 39  2  0
 39  3  1  0
 14  9  1  0
 37 15  1  0
 24 19  1  0
 33 27  1  0
 35 22  1  0
  1 40  1  0
  1 41  1  0
  1 42  1  0
  2 43  1  0
  2 44  1  0
  4 45  1  0
 10 46  1  0
 11 47  1  0
 12 48  1  0
 13 49  1  0
 16 50  1  0
 17 51  1  0
 20 52  1  0
 21 53  1  0
 24 54  1  0
 25 55  1  0
 25 56  1  0
 27 57  1  1
 28 58  1  0
 28 59  1  0
 29 60  1  0
 29 61  1  0
 32 62  1  0
 38 63  1  0
M  END
>  <meeko>  (315) 
{"is_sidechain": [true], "free_energy": -13.17, "intermolecular_energy": 0.0, "internal_energy": -13.17, "cluster_size": 19, "cluster_id": 1, "rank_in_cluster": 1}

>  <_RMSD_MCS_to_ref>  (315) 
1.7589263471609158

$$$$
ligand
     RDKit          3D

 57 61  0  0  0  0  0  0  0  0999 V2000
   24.8540    9.4020    7.6050 C   0  0  0  0  0  0  0  0  0  0  0  0
   25.5230   10.7550    7.4270 C   0  0  0  0  0  0  0  0  0  0  0  0
   25.0560   11.4550    6.1990 C   0  0  0  0  0  0  0  0  0  0  0  0
   25.4800   12.6590    5.6700 C   0  0  0  0  0  0  0  0  0  0  0  0
   24.7340   12.8040    4.5350 N   0  0  0  0  0  0  0  0  0  0  0  0
   24.7170   14.1550    3.5510 S   0  0  0  0  0  6  0  0  0  0  0  0
   23.4430   14.7980    3.8100 O   0  0  0  0  0  0  0  0  0  0  0  0
   25.1260   13.7480    2.2230 O   0  0  0  0  0  0  0  0  0  0  0  0
   25.8840   15.3120    4.0420 C   0  0  0  0  0  0  0  0  0  0  0  0
   26.9100   15.8610    3.2310 C   0  0  0  0  0  0  0  0  0  0  0  0
   27.6180   16.7150    4.0420 C   0  0  0  0  0  0  0  0  0  0  0  0
   27.0960   16.7220    5.2960 O   0  0  0  0  0  0  0  0  0  0  0  0
   26.0290   15.8550    5.3030 C   0  0  0  0  0  0  0  0  0  0  0  0
   25.2820   15.6710    6.5310 C   0  0  0  0  0  0  0  0  0  0  0  0
   24.2790   14.9700    6.5640 O   0  0  0  0  0  0  0  0  0  0  0  0
   25.8130   16.3720    7.5960 N   0  0  0  0  0  0  0  0  0  0  0  0
   25.3370   16.4440    8.9190 C   0  0  0  0  0  0  0  0  0  0  0  0
   24.1760   15.7830    9.3730 C   0  0  0  0  0  0  0  0  0  0  0  0
   23.7400   15.8970   10.7030 C   0  0  0  0  0  0  0  0  0  0  0  0
   24.4830   16.6720   11.5700 C   0  0  0  0  0  0  0  0  0  0  0  0
   25.6280   17.3180   11.1180 C   0  0  0  0  0  0  0  0  0  0  0  0
   26.0750   17.2290    9.8120 C   0  0  0  0  0  0  0  0  0  0  0  0
   26.2040   18.0650   12.2390 C   0  0  0  0  0  0  0  0  0  0  0  0
   27.1680   18.8000   12.1510 O   0  0  0  0  0  0  0  0  0  0  0  0
   25.4330   17.7730   13.3540 N   0  0  0  0  0  0  0  0  0  0  0  0
   25.5260   18.4830   14.6260 C   0  0  1  0  0  0  0  0  0  0  0  0
   26.6340   17.9620   15.5410 C   0  0  0  0  0  0  0  0  0  0  0  0
   26.6020   18.7250   16.8560 C   0  0  0  0  0  0  0  0  0  0  0  0
   26.7340   20.2130   16.6280 C   0  0  0  0  0  0  0  0  0  0  0  0
   27.1530   20.9720   17.4970 O   0  0  0  0  0  0  0  0  0  0  0  0
   26.2840   20.6950   15.4250 N   0  0  0  0  0  0  0  0  0  0  0  0
   25.6740   19.9960   14.4080 C   0  0  0  0  0  0  0  0  0  0  0  0
   25.1960   20.5950   13.4450 O   0  0  0  0  0  0  0  0  0  0  0  0
   24.2540   16.9890   13.0090 C   0  0  0  0  0  0  0  0  0  0  0  0
   23.8710   11.7620    4.4310 C   0  0  0  0  0  0  0  0  0  0  0  0
   24.0520   10.9120    5.4230 N   0  0  0  0  0  0  0  0  0  0  0  0
   24.7464    9.1845    8.6779 H   0  0  0  0  0  0  0  0  0  0  0  0
   23.8606    9.4192    7.1330 H   0  0  0  0  0  0  0  0  0  0  0  0
   25.4708    8.6230    7.1330 H   0  0  0  0  0  0  0  0  0  0  0  0
   25.2932   11.3818    8.3013 H   0  0  0  0  0  0  0  0  0  0  0  0
   26.6056   10.5866    7.3291 H   0  0  0  0  0  0  0  0  0  0  0  0
   26.2426   13.3431    6.0706 H   0  0  0  0  0  0  0  0  0  0  0  0
   27.1002   15.6467    2.1690 H   0  0  0  0  0  0  0  0  0  0  0  0
   28.4859   17.3096    3.7207 H   0  0  0  0  0  0  0  0  0  0  0  0
   26.6674   16.9117    7.3966 H   0  0  0  0  0  0  0  0  0  0  0  0
   23.5995   15.1645    8.6693 H   0  0  0  0  0  0  0  0  0  0  0  0
   22.8301   15.3820   11.0448 H   0  0  0  0  0  0  0  0  0  0  0  0
   26.9821   17.7587    9.4856 H   0  0  0  0  0  0  0  0  0  0  0  0
   24.5769   18.2851   15.1456 H   0  0  0  0  0  0  0  0  0  0  0  0
   26.4772   16.8905   15.7342 H   0  0  0  0  0  0  0  0  0  0  0  0
   27.6104   18.1065   15.0555 H   0  0  0  0  0  0  0  0  0  0  0  0
   25.6478   18.5233   17.3647 H   0  0  0  0  0  0  0  0  0  0  0  0
   27.4490   18.3908   17.4732 H   0  0  0  0  0  0  0  0  0  0  0  0
   26.4191   21.7032   15.2629 H   0  0  0  0  0  0  0  0  0  0  0  0
   24.1965   16.0717   13.6133 H   0  0  0  0  0  0  0  0  0  0  0  0
   23.3075   17.5177   13.1950 H   0  0  0  0  0  0  0  0  0  0  0  0
   23.1250   11.6430    3.6314 H   0  0  0  0  0  0  0  0  0  0  0  0
  1  2  1  0
  2  3  1  0
  3  4  2  0
  4  5  1  0
  5  6  1  0
  6  7  2  0
  6  8  2  0
  6  9  1  0
  9 10  1  0
 10 11  2  0
 11 12  1  0
 12 13  1  0
 13 14  1  0
 14 15  2  0
 14 16  1  0
 16 17  1  0
 17 18  2  0
 18 19  1  0
 19 20  2  0
 20 21  1  0
 21 22  2  0
 21 23  1  0
 23 24  2  0
 23 25  1  0
 25 26  1  0
 26 27  1  0
 27 28  1  0
 28 29  1  0
 29 30  2  0
 29 31  1  0
 31 32  1  0
 32 33  2  0
 25 34  1  0
  5 35  1  0
 35 36  2  0
 36  3  1  0
 13  9  2  0
 22 17  1  0
 32 26  1  0
 34 20  1  0
  1 37  1  0
  1 38  1  0
  1 39  1  0
  2 40  1  0
  2 41  1  0
  4 42  1  0
 10 43  1  0
 11 44  1  0
 16 45  1  0
 18 46  1  0
 19 47  1  0
 22 48  1  0
 26 49  1  1
 27 50  1  0
 27 51  1  0
 28 52  1  0
 28 53  1  0
 31 54  1  0
 34 55  1  0
 34 56  1  0
 35 57  1  0
M  END
>  <meeko>  (316) 
{"is_sidechain": [true], "free_energy": -13.16, "intermolecular_energy": 0.0, "internal_energy": -13.16, "cluster_size": 19, "cluster_id": 1, "rank_in_cluster": 1}

>  <_RMSD_MCS_to_ref>  (316) 
0.5990582192074486

$$$$
ligand
     RDKit          3D

 55 59  0  0  0  0  0  0  0  0999 V2000
   24.8710    9.6160    7.7820 C   0  0  0  0  0  0  0  0  0  0  0  0
   25.4240   10.9650    7.3490 C   0  0  0  0  0  0  0  0  0  0  0  0
   26.7780   11.2230    7.9100 C   0  0  0  0  0  0  0  0  0  0  0  0
   27.1450   12.0630    8.9440 C   0  0  0  0  0  0  0  0  0  0  0  0
   28.5020   11.9340    9.0160 N   0  0  0  0  0  0  0  0  0  0  0  0
   29.4790   12.5470   10.2500 S   0  0  0  0  0  6  0  0  0  0  0  0
   28.9500   11.9760   11.4750 O   0  0  0  0  0  0  0  0  0  0  0  0
   30.8310   12.2490    9.8130 O   0  0  0  0  0  0  0  0  0  0  0  0
   29.2980   14.1750   10.2650 O   0  0  0  0  0  0  0  0  0  0  0  0
   28.1900   14.7140    9.6680 C   0  0  0  0  0  0  0  0  0  0  0  0
   28.1140   14.7730    8.2790 C   0  0  0  0  0  0  0  0  0  0  0  0
   26.9900   15.3180    7.6530 C   0  0  0  0  0  0  0  0  0  0  0  0
   25.9600   15.7980    8.4720 C   0  0  0  0  0  0  0  0  0  0  0  0
   24.7610   16.3840    8.1350 N   0  0  0  0  0  0  0  0  0  0  0  0
   24.0590   16.7130    9.2660 C   0  0  0  0  0  0  0  0  0  0  0  0
   24.8110   16.3360   10.3590 C   0  0  0  0  0  0  0  0  0  0  0  0
   24.3960   16.5810   11.7290 C   0  0  0  0  0  0  0  0  0  0  0  0
   23.2000   16.0400   12.2010 C   0  0  0  0  0  0  0  0  0  0  0  0
   22.7970   16.2900   13.5080 C   0  0  0  0  0  0  0  0  0  0  0  0
   23.5870   17.0840   14.3470 C   0  0  0  0  0  0  0  0  0  0  0  0
   24.7930   17.6440   13.9030 C   0  0  0  0  0  0  0  0  0  0  0  0
   25.6080   18.4470   14.7740 N   0  0  0  0  0  0  0  0  0  0  0  0
   26.3180   17.8140   15.8820 C   0  0  0  0  0  0  0  0  0  0  0  0
   26.3520   18.7220   17.0940 C   0  0  0  0  0  0  0  0  0  0  0  0
   26.9190   20.0490   16.6980 C   0  0  0  0  0  0  0  0  0  0  0  0
   27.4430   20.8100   17.5070 O   0  0  0  0  0  0  0  0  0  0  0  0
   26.7360   20.4070   15.3930 N   0  0  0  0  0  0  0  0  0  0  0  0
   25.9240   19.7780   14.4770 C   0  0  0  0  0  0  0  0  0  0  0  0
   25.5620   20.4210   13.4950 O   0  0  0  0  0  0  0  0  0  0  0  0
   25.1850   17.3740   12.5800 C   0  0  0  0  0  0  0  0  0  0  0  0
   26.0120   15.7410    9.8650 C   0  0  0  0  0  0  0  0  0  0  0  0
   27.1420   15.1600   10.4760 C   0  0  0  0  0  0  0  0  0  0  0  0
   28.9090   11.0030    8.1130 C   0  0  0  0  0  0  0  0  0  0  0  0
   27.8840   10.5640    7.4110 N   0  0  0  0  0  0  0  0  0  0  0  0
   24.8497    9.5640    8.8806 H   0  0  0  0  0  0  0  0  0  0  0  0
   23.8507    9.4948    7.3893 H   0  0  0  0  0  0  0  0  0  0  0  0
   25.5127    8.8135    7.3893 H   0  0  0  0  0  0  0  0  0  0  0  0
   25.4853   10.9869    6.2509 H   0  0  0  0  0  0  0  0  0  0  0  0
   24.7471   11.7451    7.7275 H   0  0  0  0  0  0  0  0  0  0  0  0
   26.4924   12.6922    9.5671 H   0  0  0  0  0  0  0  0  0  0  0  0
   28.9450   14.3877    7.6699 H   0  0  0  0  0  0  0  0  0  0  0  0
   26.9166   15.3683    6.5566 H   0  0  0  0  0  0  0  0  0  0  0  0
   24.4375   16.5514    7.1715 H   0  0  0  0  0  0  0  0  0  0  0  0
   23.0698   17.1932    9.2963 H   0  0  0  0  0  0  0  0  0  0  0  0
   22.5777   15.4176   11.5412 H   0  0  0  0  0  0  0  0  0  0  0  0
   21.8554   15.8628   13.8833 H   0  0  0  0  0  0  0  0  0  0  0  0
   23.2541   17.2730   15.3782 H   0  0  0  0  0  0  0  0  0  0  0  0
   25.8068   16.8772   16.1485 H   0  0  0  0  0  0  0  0  0  0  0  0
   27.3521   17.6121   15.5661 H   0  0  0  0  0  0  0  0  0  0  0  0
   25.3312   18.8585   17.4804 H   0  0  0  0  0  0  0  0  0  0  0  0
   26.9791   18.2706   17.8769 H   0  0  0  0  0  0  0  0  0  0  0  0
   27.2581   21.2304   15.0609 H   0  0  0  0  0  0  0  0  0  0  0  0
   26.1297   17.7925   12.2027 H   0  0  0  0  0  0  0  0  0  0  0  0
   27.1971   15.0598   11.5700 H   0  0  0  0  0  0  0  0  0  0  0  0
   29.9477   10.6639    7.9862 H   0  0  0  0  0  0  0  0  0  0  0  0
  1  2  1  0
  2  3  1  0
  3  4  2  0
  4  5  1  0
  5  6  1  0
  6  7  2  0
  6  8  2  0
  6  9  1  0
  9 10  1  0
 10 11  2  0
 11 12  1  0
 12 13  2  0
 13 14  1  0
 14 15  1  0
 15 16  2  0
 16 17  1  0
 17 18  2  0
 18 19  1  0
 19 20  2  0
 20 21  1  0
 21 22  1  0
 22 23  1  0
 23 24  1  0
 24 25  1  0
 25 26  2  0
 25 27  1  0
 27 28  1  0
 28 29  2  0
 21 30  2  0
 16 31  1  0
 31 32  2  0
  5 33  1  0
 33 34  2  0
 34  3  1  0
 32 10  1  0
 31 13  1  0
 30 17  1  0
 28 22  1  0
  1 35  1  0
  1 36  1  0
  1 37  1  0
  2 38  1  0
  2 39  1  0
  4 40  1  0
 11 41  1  0
 12 42  1  0
 14 43  1  0
 15 44  1  0
 18 45  1  0
 19 46  1  0
 20 47  1  0
 23 48  1  0
 23 49  1  0
 24 50  1  0
 24 51  1  0
 27 52  1  0
 30 53  1  0
 32 54  1  0
 33 55  1  0
M  END
>  <meeko>  (317) 
{"is_sidechain": [true], "free_energy": -13.16, "intermolecular_energy": 0.0, "internal_energy": -13.16, "cluster_size": 13, "cluster_id": 1, "rank_in_cluster": 1}

>  <_RMSD_MCS_to_ref>  (317) 
0.8122319557860311

$$$$
ligand
     RDKit          3D

 60 65  0  0  0  0  0  0  0  0999 V2000
   24.8540    9.4020    7.6050 C   0  0  0  0  0  0  0  0  0  0  0  0
   25.5230   10.7550    7.4270 C   0  0  0  0  0  0  0  0  0  0  0  0
   24.7610   11.6430    6.5070 C   0  0  0  0  0  0  0  0  0  0  0  0
   25.1860   12.2630    5.3480 C   0  0  0  0  0  0  0  0  0  0  0  0
   24.0800   12.9260    4.8970 N   0  0  0  0  0  0  0  0  0  0  0  0
   24.0510   14.0570    3.6480 S   0  0  0  0  0  6  0  0  0  0  0  0
   24.8460   13.4570    2.5920 O   0  0  0  0  0  0  0  0  0  0  0  0
   22.6450   14.3620    3.4600 O   0  0  0  0  0  0  0  0  0  0  0  0
   24.8190   15.3750    4.2200 O   0  0  0  0  0  0  0  0  0  0  0  0
   25.7090   15.3220    5.2650 C   0  0  0  0  0  0  0  0  0  0  0  0
   25.1620   15.6550    6.5130 C   0  0  0  0  0  0  0  0  0  0  0  0
   25.9240   15.6590    7.7010 C   0  0  0  0  0  0  0  0  0  0  0  0
   25.3500   16.0050    9.0090 C   0  0  0  0  0  0  0  0  0  0  0  0
   24.1240   15.4360    9.4430 C   0  0  0  0  0  0  0  0  0  0  0  0
   23.5610   15.7370   10.6920 C   0  0  0  0  0  0  0  0  0  0  0  0
   24.2330   16.6220   11.5110 C   0  0  0  0  0  0  0  0  0  0  0  0
   25.4340   17.1840   11.0910 C   0  0  0  0  0  0  0  0  0  0  0  0
   26.0110   16.8990    9.8670 C   0  0  0  0  0  0  0  0  0  0  0  0
   25.9210   18.0690   12.1530 C   0  0  0  0  0  0  0  0  0  0  0  0
   26.9770   18.6730   12.1330 O   0  0  0  0  0  0  0  0  0  0  0  0
   24.9550   18.0690   13.1500 N   0  0  0  0  0  0  0  0  0  0  0  0
   25.2070   18.6400   14.4670 C   0  0  1  0  0  0  0  0  0  0  0  0
   26.3320   17.9250   15.2080 C   0  0  0  0  0  0  0  0  0  0  0  0
   26.4740   18.5140   16.6020 C   0  0  0  0  0  0  0  0  0  0  0  0
   26.6980   20.0080   16.5420 C   0  0  0  0  0  0  0  0  0  0  0  0
   27.4280   20.5960   17.3340 O   0  0  0  0  0  0  0  0  0  0  0  0
   26.0250   20.6900   15.5600 N   0  0  0  0  0  0  0  0  0  0  0  0
   25.5290   20.1420   14.3980 C   0  0  0  0  0  0  0  0  0  0  0  0
   25.3820   20.8420   13.3980 O   0  0  0  0  0  0  0  0  0  0  0  0
   23.8890   17.1110   12.8780 C   0  0  0  0  0  0  0  0  0  0  0  0
   27.2710   15.3040    7.5370 C   0  0  0  0  0  0  0  0  0  0  0  0
   28.2110   15.2230    8.5280 O   0  0  0  0  0  0  0  0  0  0  0  0
   29.3780   14.8430    7.9510 C   0  0  0  0  0  0  0  0  0  0  0  0
   29.2150   14.6750    6.5980 C   0  0  0  0  0  0  0  0  0  0  0  0
   27.8520   14.9660    6.3180 C   0  0  0  0  0  0  0  0  0  0  0  0
   27.0590   14.9760    5.1540 C   0  0  0  0  0  0  0  0  0  0  0  0
   23.0740   12.7720    5.7960 C   0  0  0  0  0  0  0  0  0  0  0  0
   23.4470   11.9730    6.7740 N   0  0  0  0  0  0  0  0  0  0  0  0
   24.7464    9.1845    8.6779 H   0  0  0  0  0  0  0  0  0  0  0  0
   23.8606    9.4192    7.1330 H   0  0  0  0  0  0  0  0  0  0  0  0
   25.4708    8.6230    7.1330 H   0  0  0  0  0  0  0  0  0  0  0  0
   25.5992   11.2444    8.4092 H   0  0  0  0  0  0  0  0  0  0  0  0
   26.5163   10.5849    6.9860 H   0  0  0  0  0  0  0  0  0  0  0  0
   26.1866   12.2303    4.8923 H   0  0  0  0  0  0  0  0  0  0  0  0
   24.0967   15.9237    6.5680 H   0  0  0  0  0  0  0  0  0  0  0  0
   23.5979   14.7357    8.7776 H   0  0  0  0  0  0  0  0  0  0  0  0
   22.6116   15.2811   11.0096 H   0  0  0  0  0  0  0  0  0  0  0  0
   26.9647   17.3614    9.5725 H   0  0  0  0  0  0  0  0  0  0  0  0
   24.2705   18.4995   15.0267 H   0  0  0  0  0  0  0  0  0  0  0  0
   26.0974   16.8531   15.2849 H   0  0  0  0  0  0  0  0  0  0  0  0
   27.2751   18.0549   14.6569 H   0  0  0  0  0  0  0  0  0  0  0  0
   25.5559   18.3111   17.1729 H   0  0  0  0  0  0  0  0  0  0  0  0
   27.3436   18.0499   17.0902 H   0  0  0  0  0  0  0  0  0  0  0  0
   25.8780   21.6992   15.7044 H   0  0  0  0  0  0  0  0  0  0  0  0
   23.8984   16.2884   13.6082 H   0  0  0  0  0  0  0  0  0  0  0  0
   22.8811   17.5463   12.9465 H   0  0  0  0  0  0  0  0  0  0  0  0
   30.3237   14.6906    8.4917 H   0  0  0  0  0  0  0  0  0  0  0  0
   29.9866   14.3746    5.8739 H   0  0  0  0  0  0  0  0  0  0  0  0
   27.4932   14.7168    4.1771 H   0  0  0  0  0  0  0  0  0  0  0  0
   22.0855   13.2482    5.7181 H   0  0  0  0  0  0  0  0  0  0  0  0
  1  2  1  0
  2  3  1  0
  3  4  2  0
  4  5  1  0
  5  6  1  0
  6  7  2  0
  6  8  2  0
  6  9  1  0
  9 10  1  0
 10 11  2  0
 11 12  1  0
 12 13  1  0
 13 14  2  0
 14 15  1  0
 15 16  2  0
 16 17  1  0
 17 18  2  0
 17 19  1  0
 19 20  2  0
 19 21  1  0
 21 22  1  0
 22 23  1  0
 23 24  1  0
 24 25  1  0
 25 26  2  0
 25 27  1  0
 27 28  1  0
 28 29  2  0
 21 30  1  0
 12 31  2  0
 31 32  1  0
 32 33  1  0
 33 34  2  0
 34 35  1  0
 35 36  2  0
  5 37  1  0
 37 38  2  0
 38  3  1  0
 36 10  1  0
 18 13  1  0
 28 22  1  0
 35 31  1  0
 30 16  1  0
  1 39  1  0
  1 40  1  0
  1 41  1  0
  2 42  1  0
  2 43  1  0
  4 44  1  0
 11 45  1  0
 14 46  1  0
 15 47  1  0
 18 48  1  0
 22 49  1  1
 23 50  1  0
 23 51  1  0
 24 52  1  0
 24 53  1  0
 27 54  1  0
 30 55  1  0
 30 56  1  0
 33 57  1  0
 34 58  1  0
 36 59  1  0
 37 60  1  0
M  END
>  <meeko>  (318) 
{"is_sidechain": [true], "free_energy": -13.15, "intermolecular_energy": 0.0, "internal_energy": -13.15, "cluster_size": 11, "cluster_id": 1, "rank_in_cluster": 1}

>  <_RMSD_MCS_to_ref>  (318) 
0.5008834417528912

$$$$
ligand
     RDKit          3D

 62 67  0  0  0  0  0  0  0  0999 V2000
   24.8540    9.4020    7.6050 C   0  0  0  0  0  0  0  0  0  0  0  0
   25.5230   10.7550    7.4270 C   0  0  0  0  0  0  0  0  0  0  0  0
   24.9700   11.5060    6.2670 C   0  0  0  0  0  0  0  0  0  0  0  0
   25.0620   12.8540    5.9810 C   0  0  0  0  0  0  0  0  0  0  0  0
   24.3490   13.0010    4.8250 N   0  0  0  0  0  0  0  0  0  0  0  0
   24.3010   14.3910    3.8730 S   0  0  0  0  0  6  0  0  0  0  0  0
   22.9580   14.3970    3.3200 O   0  0  0  0  0  0  0  0  0  0  0  0
   25.4780   14.3030    3.0300 O   0  0  0  0  0  0  0  0  0  0  0  0
   24.4730   15.6450    4.9110 O   0  0  0  0  0  0  0  0  0  0  0  0
   25.7500   16.0070    5.2630 C   0  0  0  0  0  0  0  0  0  0  0  0
   26.6930   16.1860    4.2600 C   0  0  0  0  0  0  0  0  0  0  0  0
   27.9670   16.5410    4.6490 C   0  0  0  0  0  0  0  0  0  0  0  0
   28.3390   16.7130    5.9360 N   0  0  0  0  0  0  0  0  0  0  0  0
   27.4220   16.5220    6.9010 C   0  0  0  0  0  0  0  0  0  0  0  0
   27.7870   16.7010    8.2280 C   0  0  0  0  0  0  0  0  0  0  0  0
   26.8740   16.5320    9.2770 C   0  0  0  0  0  0  0  0  0  0  0  0
   25.5530   16.1590    9.0170 C   0  0  0  0  0  0  0  0  0  0  0  0
   24.5740   16.0080   10.1000 C   0  0  0  0  0  0  0  0  0  0  0  0
   23.4530   15.1660    9.9580 C   0  0  0  0  0  0  0  0  0  0  0  0
   22.5020   15.0140   10.9870 C   0  0  0  0  0  0  0  0  0  0  0  0
   22.6470   15.7000   12.1910 C   0  0  0  0  0  0  0  0  0  0  0  0
   23.7490   16.5210   12.3210 C   0  0  0  0  0  0  0  0  0  0  0  0
   24.7000   16.6820   11.3130 C   0  0  0  0  0  0  0  0  0  0  0  0
   25.7830   17.5980   11.7900 C   0  0  0  0  0  0  0  0  0  0  0  0
   25.2920   18.0290   13.0920 N   0  0  0  0  0  0  0  0  0  0  0  0
   26.1130   18.7570   14.0520 C   0  0  2  0  0  0  0  0  0  0  0  0
   26.1050   18.1080   15.4330 C   0  0  0  0  0  0  0  0  0  0  0  0
   27.0510   18.8640   16.3530 C   0  0  0  0  0  0  0  0  0  0  0  0
   26.6940   20.3310   16.4190 C   0  0  0  0  0  0  0  0  0  0  0  0
   26.8510   20.9990   17.4360 O   0  0  0  0  0  0  0  0  0  0  0  0
   26.2060   20.8980   15.2690 N   0  0  0  0  0  0  0  0  0  0  0  0
   25.6820   20.2270   14.1860 C   0  0  0  0  0  0  0  0  0  0  0  0
   24.9290   20.8050   13.4060 O   0  0  0  0  0  0  0  0  0  0  0  0
   24.1450   17.3470   13.4670 C   0  0  0  0  0  0  0  0  0  0  0  0
   23.5510   17.4080   14.5260 O   0  0  0  0  0  0  0  0  0  0  0  0
   25.1840   15.9500    7.6810 C   0  0  0  0  0  0  0  0  0  0  0  0
   26.0950   16.1490    6.6190 C   0  0  0  0  0  0  0  0  0  0  0  0
   23.9280   11.7810    4.4040 C   0  0  0  0  0  0  0  0  0  0  0  0
   24.2670   10.8530    5.2740 N   0  0  0  0  0  0  0  0  0  0  0  0
   24.7464    9.1845    8.6779 H   0  0  0  0  0  0  0  0  0  0  0  0
   23.8606    9.4192    7.1330 H   0  0  0  0  0  0  0  0  0  0  0  0
   25.4708    8.6230    7.1330 H   0  0  0  0  0  0  0  0  0  0  0  0
   25.3693   11.3493    8.3398 H   0  0  0  0  0  0  0  0  0  0  0  0
   26.5927   10.5812    7.2385 H   0  0  0  0  0  0  0  0  0  0  0  0
   25.5890   13.6317    6.5533 H   0  0  0  0  0  0  0  0  0  0  0  0
   26.4345   16.0503    3.1995 H   0  0  0  0  0  0  0  0  0  0  0  0
   28.7244   16.6930    3.8659 H   0  0  0  0  0  0  0  0  0  0  0  0
   28.8237   16.9839    8.4630 H   0  0  0  0  0  0  0  0  0  0  0  0
   27.2002   16.6945   10.3149 H   0  0  0  0  0  0  0  0  0  0  0  0
   23.3164   14.6118    9.0177 H   0  0  0  0  0  0  0  0  0  0  0  0
   21.6387   14.3487   10.8384 H   0  0  0  0  0  0  0  0  0  0  0  0
   21.9139   15.5919   13.0040 H   0  0  0  0  0  0  0  0  0  0  0  0
   26.7402   17.0642   11.8845 H   0  0  0  0  0  0  0  0  0  0  0  0
   25.9815   18.4327   11.1016 H   0  0  0  0  0  0  0  0  0  0  0  0
   27.1361   18.7193   13.6497 H   0  0  0  0  0  0  0  0  0  0  0  0
   25.0866   18.1401   15.8475 H   0  0  0  0  0  0  0  0  0  0  0  0
   26.4333   17.0615   15.3486 H   0  0  0  0  0  0  0  0  0  0  0  0
   26.9887   18.4339   17.3635 H   0  0  0  0  0  0  0  0  0  0  0  0
   28.0720   18.7719   15.9542 H   0  0  0  0  0  0  0  0  0  0  0  0
   26.2342   21.9259   15.2095 H   0  0  0  0  0  0  0  0  0  0  0  0
   24.1588   15.6226    7.4532 H   0  0  0  0  0  0  0  0  0  0  0  0
   23.3809   11.5943    3.4681 H   0  0  0  0  0  0  0  0  0  0  0  0
  1  2  1  0
  2  3  1  0
  3  4  2  0
  4  5  1  0
  5  6  1  0
  6  7  2  0
  6  8  2  0
  6  9  1  0
  9 10  1  0
 10 11  2  0
 11 12  1  0
 12 13  2  0
 13 14  1  0
 14 15  2  0
 15 16  1  0
 16 17  2  0
 17 18  1  0
 18 19  2  0
 19 20  1  0
 20 21  2  0
 21 22  1  0
 22 23  2  0
 23 24  1  0
 24 25  1  0
 25 26  1  0
 26 27  1  0
 27 28  1  0
 28 29  1  0
 29 30  2  0
 29 31  1  0
 31 32  1  0
 32 33  2  0
 25 34  1  0
 34 35  2  0
 17 36  1  0
 36 37  2  0
  5 38  1  0
 38 39  2  0
 39  3  1  0
 37 10  1  0
 37 14  1  0
 23 18  1  0
 32 26  1  0
 34 22  1  0
  1 40  1  0
  1 41  1  0
  1 42  1  0
  2 43  1  0
  2 44  1  0
  4 45  1  0
 11 46  1  0
 12 47  1  0
 15 48  1  0
 16 49  1  0
 19 50  1  0
 20 51  1  0
 21 52  1  0
 24 53  1  0
 24 54  1  0
 26 55  1  6
 27 56  1  0
 27 57  1  0
 28 58  1  0
 28 59  1  0
 31 60  1  0
 36 61  1  0
 38 62  1  0
M  END
>  <meeko>  (319) 
{"is_sidechain": [true], "free_energy": -13.14, "intermolecular_energy": 0.0, "internal_energy": -13.14, "cluster_size": 2, "cluster_id": 1, "rank_in_cluster": 1}

>  <_RMSD_MCS_to_ref>  (319) 
0.7790398649049415

$$$$
ligand
     RDKit          3D

 57 61  0  0  0  0  0  0  0  0999 V2000
   24.8540    9.4020    7.6050 C   0  0  0  0  0  0  0  0  0  0  0  0
   25.5230   10.7550    7.4270 C   0  0  0  0  0  0  0  0  0  0  0  0
   27.0070   10.6600    7.4750 C   0  0  0  0  0  0  0  0  0  0  0  0
   27.9500   11.6310    7.2060 C   0  0  0  0  0  0  0  0  0  0  0  0
   29.1470   11.0110    7.4310 N   0  0  0  0  0  0  0  0  0  0  0  0
   30.6530   11.6880    7.1610 S   0  0  0  0  0  6  0  0  0  0  0  0
   30.5710   12.4710    5.9430 O   0  0  0  0  0  0  0  0  0  0  0  0
   31.6030   10.5990    7.3050 O   0  0  0  0  0  0  0  0  0  0  0  0
   31.0060   12.8150    8.4490 C   0  0  0  0  0  0  0  0  0  0  0  0
   32.0490   12.6800    9.2930 N   0  0  0  0  0  0  0  0  0  0  0  0
   31.9740   13.7620   10.0820 N   0  0  0  0  0  0  0  0  0  0  0  0
   30.9120   14.5670    9.7980 C   0  0  0  0  0  0  0  0  0  0  0  0
   30.2520   13.9850    8.7330 C   0  0  0  0  0  0  0  0  0  0  0  0
   29.0180   14.4160    8.1110 C   0  0  0  0  0  0  0  0  0  0  0  0
   28.9380   14.4560    6.8860 O   0  0  0  0  0  0  0  0  0  0  0  0
   27.9680   14.7660    8.9330 N   0  0  0  0  0  0  0  0  0  0  0  0
   26.6030   14.2960    8.5780 C   0  0  0  0  0  0  0  0  0  0  0  0
   25.8410   15.0570    9.5610 C   0  0  0  0  0  0  0  0  0  0  0  0
   24.5540   15.1960    9.9230 N   0  0  0  0  0  0  0  0  0  0  0  0
   24.4190   16.0840   10.9450 N   0  0  0  0  0  0  0  0  0  0  0  0
   25.6850   16.5080   11.2070 C   0  0  0  0  0  0  0  0  0  0  0  0
   25.9920   17.4820   12.2600 C   0  0  0  0  0  0  0  0  0  0  0  0
   27.0410   18.1200   12.2900 O   0  0  0  0  0  0  0  0  0  0  0  0
   25.0050   17.5970   13.2090 N   0  0  0  0  0  0  0  0  0  0  0  0
   25.1640   18.3830   14.4150 C   0  0  1  0  0  0  0  0  0  0  0  0
   26.2900   17.8520   15.2960 C   0  0  0  0  0  0  0  0  0  0  0  0
   26.4210   18.7220   16.5340 C   0  0  0  0  0  0  0  0  0  0  0  0
   26.6340   20.1710   16.1690 C   0  0  0  0  0  0  0  0  0  0  0  0
   27.3050   20.9330   16.8580 O   0  0  0  0  0  0  0  0  0  0  0  0
   26.0060   20.6170   15.0330 N   0  0  0  0  0  0  0  0  0  0  0  0
   25.4650   19.8380   14.0380 C   0  0  0  0  0  0  0  0  0  0  0  0
   25.2230   20.3120   12.9300 O   0  0  0  0  0  0  0  0  0  0  0  0
   26.5860   15.8760   10.3460 C   0  0  0  0  0  0  0  0  0  0  0  0
   28.0090   15.7980   10.0190 C   0  0  0  0  0  0  0  0  0  0  0  0
   28.9190    9.7180    7.7690 C   0  0  0  0  0  0  0  0  0  0  0  0
   27.6250    9.4740    7.8230 N   0  0  0  0  0  0  0  0  0  0  0  0
   24.7464    9.1845    8.6779 H   0  0  0  0  0  0  0  0  0  0  0  0
   23.8606    9.4192    7.1330 H   0  0  0  0  0  0  0  0  0  0  0  0
   25.4708    8.6230    7.1330 H   0  0  0  0  0  0  0  0  0  0  0  0
   25.2262   11.1713    6.4530 H   0  0  0  0  0  0  0  0  0  0  0  0
   25.1996   11.4027    8.2552 H   0  0  0  0  0  0  0  0  0  0  0  0
   27.7774   12.6685    6.8837 H   0  0  0  0  0  0  0  0  0  0  0  0
   32.6529   13.9646   10.8296 H   0  0  0  0  0  0  0  0  0  0  0  0
   30.6347   15.4974   10.3151 H   0  0  0  0  0  0  0  0  0  0  0  0
   26.3294   14.5629    7.5465 H   0  0  0  0  0  0  0  0  0  0  0  0
   26.4549   13.2063    8.6029 H   0  0  0  0  0  0  0  0  0  0  0  0
   23.7697   14.6941    9.4827 H   0  0  0  0  0  0  0  0  0  0  0  0
   24.1141   17.1032   13.0562 H   0  0  0  0  0  0  0  0  0  0  0  0
   24.2255   18.3167   14.9850 H   0  0  0  0  0  0  0  0  0  0  0  0
   26.0631   16.8186   15.5970 H   0  0  0  0  0  0  0  0  0  0  0  0
   27.2350   17.8723   14.7333 H   0  0  0  0  0  0  0  0  0  0  0  0
   25.5016   18.6349   17.1315 H   0  0  0  0  0  0  0  0  0  0  0  0
   27.2938   18.3778   17.1082 H   0  0  0  0  0  0  0  0  0  0  0  0
   25.9328   21.6375   14.9142 H   0  0  0  0  0  0  0  0  0  0  0  0
   28.3977   16.7601    9.6539 H   0  0  0  0  0  0  0  0  0  0  0  0
   28.6672   15.5545   10.8660 H   0  0  0  0  0  0  0  0  0  0  0  0
   29.7052    8.9754    7.9703 H   0  0  0  0  0  0  0  0  0  0  0  0
  1  2  1  0
  2  3  1  0
  3  4  2  0
  4  5  1  0
  5  6  1  0
  6  7  2  0
  6  8  2  0
  6  9  1  0
  9 10  2  0
 10 11  1  0
 11 12  1  0
 12 13  2  0
 13 14  1  0
 14 15  2  0
 14 16  1  0
 16 17  1  0
 17 18  1  0
 18 19  1  0
 19 20  1  0
 20 21  2  0
 21 22  1  0
 22 23  2  0
 22 24  1  0
 24 25  1  0
 25 26  1  0
 26 27  1  0
 27 28  1  0
 28 29  2  0
 28 30  1  0
 30 31  1  0
 31 32  2  0
 21 33  1  0
 33 34  1  0
  5 35  1  0
 35 36  2  0
 36  3  1  0
 13  9  1  0
 34 16  1  0
 33 18  2  0
 31 25  1  0
  1 37  1  0
  1 38  1  0
  1 39  1  0
  2 40  1  0
  2 41  1  0
  4 42  1  0
 11 43  1  0
 12 44  1  0
 17 45  1  0
 17 46  1  0
 19 47  1  0
 24 48  1  0
 25 49  1  1
 26 50  1  0
 26 51  1  0
 27 52  1  0
 27 53  1  0
 30 54  1  0
 34 55  1  0
 34 56  1  0
 35 57  1  0
M  END
>  <meeko>  (320) 
{"is_sidechain": [true], "free_energy": -13.13, "intermolecular_energy": 0.0, "internal_energy": -13.13, "cluster_size": 14, "cluster_id": 1, "rank_in_cluster": 1}

>  <_RMSD_MCS_to_ref>  (320) 
0.5671779066375711

$$$$
ligand
     RDKit          3D

 59 64  0  0  0  0  0  0  0  0999 V2000
   24.8710    9.6160    7.7820 C   0  0  0  0  0  0  0  0  0  0  0  0
   25.4240   10.9650    7.3490 C   0  0  0  0  0  0  0  0  0  0  0  0
   26.6890   11.3060    8.0550 C   0  0  0  0  0  0  0  0  0  0  0  0
   27.9540   11.4950    7.5300 C   0  0  0  0  0  0  0  0  0  0  0  0
   28.7300   11.7590    8.6220 N   0  0  0  0  0  0  0  0  0  0  0  0
   30.3550   12.1950    8.5890 S   0  0  0  0  0  6  0  0  0  0  0  0
   30.5930   12.7350    9.9140 O   0  0  0  0  0  0  0  0  0  0  0  0
   31.0740   11.0260    8.1190 O   0  0  0  0  0  0  0  0  0  0  0  0
   30.5530   13.4050    7.5300 O   0  0  0  0  0  0  0  0  0  0  0  0
   29.5510   14.0820    6.9530 C   0  0  0  0  0  0  0  0  0  0  0  0
   29.7610   14.0810    5.4860 C   0  0  0  0  0  0  0  0  0  0  0  0
   28.8270   14.7470    4.7940 C   0  0  0  0  0  0  0  0  0  0  0  0
   27.7660   15.3660    5.4490 N   0  0  0  0  0  0  0  0  0  0  0  0
   26.7570   16.0610    4.8840 N   0  0  0  0  0  0  0  0  0  0  0  0
   25.9920   16.4240    5.9110 C   0  0  0  0  0  0  0  0  0  0  0  0
   26.4880   15.9880    7.1600 C   0  0  0  0  0  0  0  0  0  0  0  0
   25.9170   16.1790    8.4860 C   0  0  0  0  0  0  0  0  0  0  0  0
   24.6330   15.6510    8.7690 C   0  0  0  0  0  0  0  0  0  0  0  0
   24.0230   15.8490   10.0110 C   0  0  0  0  0  0  0  0  0  0  0  0
   24.7260   16.5720   10.9530 C   0  0  0  0  0  0  0  0  0  0  0  0
   25.9920   17.0950   10.7060 C   0  0  0  0  0  0  0  0  0  0  0  0
   26.5980   16.9120    9.4720 C   0  0  0  0  0  0  0  0  0  0  0  0
   26.4790   17.8320   11.9080 C   0  0  0  0  0  0  0  0  0  0  0  0
   25.4040   17.6240   12.8700 N   0  0  0  0  0  0  0  0  0  0  0  0
   25.3660   18.3600   14.1270 C   0  0  2  0  0  0  0  0  0  0  0  0
   26.0910   19.7040   14.0730 C   0  0  0  0  0  0  0  0  0  0  0  0
   25.9380   20.4120   15.4110 C   0  0  0  0  0  0  0  0  0  0  0  0
   26.4520   19.5570   16.5450 C   0  0  0  0  0  0  0  0  0  0  0  0
   26.8220   20.0390   17.6120 O   0  0  0  0  0  0  0  0  0  0  0  0
   26.4100   18.1980   16.3610 N   0  0  0  0  0  0  0  0  0  0  0  0
   25.9020   17.5040   15.2860 C   0  0  0  0  0  0  0  0  0  0  0  0
   25.8040   16.2780   15.3310 O   0  0  0  0  0  0  0  0  0  0  0  0
   24.3280   16.9550   12.3120 C   0  0  0  0  0  0  0  0  0  0  0  0
   23.2410   16.7240   12.8030 O   0  0  0  0  0  0  0  0  0  0  0  0
   27.6550   15.3080    6.8510 C   0  0  0  0  0  0  0  0  0  0  0  0
   28.5930   14.6470    7.6140 N   0  0  0  0  0  0  0  0  0  0  0  0
   27.9480   11.8000    9.7300 C   0  0  0  0  0  0  0  0  0  0  0  0
   26.7020   11.4960    9.4230 N   0  0  0  0  0  0  0  0  0  0  0  0
   24.8497    9.5640    8.8806 H   0  0  0  0  0  0  0  0  0  0  0  0
   23.8507    9.4948    7.3893 H   0  0  0  0  0  0  0  0  0  0  0  0
   25.5127    8.8135    7.3893 H   0  0  0  0  0  0  0  0  0  0  0  0
   25.6185   10.9374    6.2667 H   0  0  0  0  0  0  0  0  0  0  0  0
   24.6782   11.7330    7.6018 H   0  0  0  0  0  0  0  0  0  0  0  0
   28.2638   11.4444    6.4757 H   0  0  0  0  0  0  0  0  0  0  0  0
   30.6121   13.5760    5.0058 H   0  0  0  0  0  0  0  0  0  0  0  0
   28.8992   14.8053    3.6979 H   0  0  0  0  0  0  0  0  0  0  0  0
   25.0653   17.0059    5.7984 H   0  0  0  0  0  0  0  0  0  0  0  0
   24.1055   15.0735    7.9956 H   0  0  0  0  0  0  0  0  0  0  0  0
   23.0233   15.4450   10.2286 H   0  0  0  0  0  0  0  0  0  0  0  0
   27.5937   17.3332    9.2691 H   0  0  0  0  0  0  0  0  0  0  0  0
   27.4264   17.4102   12.2748 H   0  0  0  0  0  0  0  0  0  0  0  0
   26.6900   18.8938   11.7127 H   0  0  0  0  0  0  0  0  0  0  0  0
   24.3050   18.5878   14.3070 H   0  0  0  0  0  0  0  0  0  0  0  0
   27.1583   19.5377   13.8652 H   0  0  0  0  0  0  0  0  0  0  0  0
   25.6568   20.3251   13.2757 H   0  0  0  0  0  0  0  0  0  0  0  0
   26.5065   21.3534   15.3856 H   0  0  0  0  0  0  0  0  0  0  0  0
   24.8689   20.6081   15.5803 H   0  0  0  0  0  0  0  0  0  0  0  0
   26.8074   17.6268   17.1205 H   0  0  0  0  0  0  0  0  0  0  0  0
   28.3028   12.0511   10.7405 H   0  0  0  0  0  0  0  0  0  0  0  0
  1  2  1  0
  2  3  1  0
  3  4  2  0
  4  5  1  0
  5  6  1  0
  6  7  2  0
  6  8  2  0
  6  9  1  0
  9 10  1  0
 10 11  1  0
 11 12  2  0
 12 13  1  0
 13 14  1  0
 14 15  2  0
 15 16  1  0
 16 17  1  0
 17 18  2  0
 18 19  1  0
 19 20  2  0
 20 21  1  0
 21 22  2  0
 21 23  1  0
 23 24  1  0
 24 25  1  0
 25 26  1  0
 26 27  1  0
 27 28  1  0
 28 29  2  0
 28 30  1  0
 30 31  1  0
 31 32  2  0
 24 33  1  0
 33 34  2  0
 16 35  2  0
 35 36  1  0
  5 37  1  0
 37 38  2  0
 38  3  1  0
 36 10  2  0
 35 13  1  0
 22 17  1  0
 31 25  1  0
 33 20  1  0
  1 39  1  0
  1 40  1  0
  1 41  1  0
  2 42  1  0
  2 43  1  0
  4 44  1  0
 11 45  1  0
 12 46  1  0
 15 47  1  0
 18 48  1  0
 19 49  1  0
 22 50  1  0
 23 51  1  0
 23 52  1  0
 25 53  1  1
 26 54  1  0
 26 55  1  0
 27 56  1  0
 27 57  1  0
 30 58  1  0
 37 59  1  0
M  END
>  <meeko>  (321) 
{"is_sidechain": [true], "free_energy": -13.13, "intermolecular_energy": 0.0, "internal_energy": -13.13, "cluster_size": 19, "cluster_id": 1, "rank_in_cluster": 1}

>  <_RMSD_MCS_to_ref>  (321) 
1.7375035630406481

$$$$
ligand
     RDKit          3D

 61 66  0  0  0  0  0  0  0  0999 V2000
   24.8710    9.6160    7.7820 C   0  0  0  0  0  0  0  0  0  0  0  0
   25.4240   10.9650    7.3490 C   0  0  0  0  0  0  0  0  0  0  0  0
   26.8510   10.8810    6.9360 C   0  0  0  0  0  0  0  0  0  0  0  0
   27.9840   10.8450    7.7250 C   0  0  0  0  0  0  0  0  0  0  0  0
   29.0120   10.7320    6.8320 N   0  0  0  0  0  0  0  0  0  0  0  0
   30.6510   10.9000    7.1910 S   0  0  0  0  0  6  0  0  0  0  0  0
   30.9510    9.7800    8.0650 O   0  0  0  0  0  0  0  0  0  0  0  0
   31.2930   11.0540    5.8990 O   0  0  0  0  0  0  0  0  0  0  0  0
   30.7780   12.2980    8.0340 O   0  0  0  0  0  0  0  0  0  0  0  0
   29.7120   12.9460    8.5050 C   0  0  0  0  0  0  0  0  0  0  0  0
   28.8520   12.7290    9.5620 C   0  0  0  0  0  0  0  0  0  0  0  0
   27.8880   13.7740    9.5670 C   0  0  0  0  0  0  0  0  0  0  0  0
   26.7840   14.0850   10.3850 C   0  0  0  0  0  0  0  0  0  0  0  0
   26.0040   15.2240   10.1140 C   0  0  0  0  0  0  0  0  0  0  0  0
   24.8480   15.5460   10.9540 C   0  0  0  0  0  0  0  0  0  0  0  0
   23.5770   15.0030   10.6800 C   0  0  0  0  0  0  0  0  0  0  0  0
   22.4560   15.2940   11.4840 C   0  0  0  0  0  0  0  0  0  0  0  0
   22.5780   16.1410   12.5840 C   0  0  0  0  0  0  0  0  0  0  0  0
   23.8270   16.6750   12.8370 C   0  0  0  0  0  0  0  0  0  0  0  0
   24.9450   16.3940   12.0510 C   0  0  0  0  0  0  0  0  0  0  0  0
   26.1350   17.1220   12.5910 C   0  0  0  0  0  0  0  0  0  0  0  0
   25.5690   17.8930   13.6910 N   0  0  0  0  0  0  0  0  0  0  0  0
   26.3780   18.5800   14.6890 C   0  0  2  0  0  0  0  0  0  0  0  0
   26.1330   18.0550   16.1000 C   0  0  0  0  0  0  0  0  0  0  0  0
   27.0730   18.7540   17.0710 C   0  0  0  0  0  0  0  0  0  0  0  0
   26.9200   20.2550   16.9910 C   0  0  0  0  0  0  0  0  0  0  0  0
   27.0130   20.9780   17.9780 O   0  0  0  0  0  0  0  0  0  0  0  0
   26.6870   20.7820   15.7470 N   0  0  0  0  0  0  0  0  0  0  0  0
   26.1540   20.1020   14.6760 C   0  0  0  0  0  0  0  0  0  0  0  0
   25.5390   20.7090   13.8010 O   0  0  0  0  0  0  0  0  0  0  0  0
   24.2340   17.5880   13.9090 C   0  0  0  0  0  0  0  0  0  0  0  0
   23.5130   17.9840   14.8040 O   0  0  0  0  0  0  0  0  0  0  0  0
   26.3450   16.0420    9.0260 C   0  0  0  0  0  0  0  0  0  0  0  0
   27.4380   15.7550    8.1990 C   0  0  0  0  0  0  0  0  0  0  0  0
   28.1870   14.6140    8.4970 C   0  0  0  0  0  0  0  0  0  0  0  0
   29.2970   14.0900    7.8750 N   0  0  0  0  0  0  0  0  0  0  0  0
   28.5120   10.7840    5.5710 C   0  0  0  0  0  0  0  0  0  0  0  0
   27.1970   10.8510    5.5990 N   0  0  0  0  0  0  0  0  0  0  0  0
   24.8497    9.5640    8.8806 H   0  0  0  0  0  0  0  0  0  0  0  0
   23.8507    9.4948    7.3893 H   0  0  0  0  0  0  0  0  0  0  0  0
   25.5127    8.8135    7.3893 H   0  0  0  0  0  0  0  0  0  0  0  0
   24.8306   11.3351    6.4999 H   0  0  0  0  0  0  0  0  0  0  0  0
   25.3610   11.6477    8.2092 H   0  0  0  0  0  0  0  0  0  0  0  0
   28.0449   10.8957    8.8221 H   0  0  0  0  0  0  0  0  0  0  0  0
   28.9033   11.8937   10.2759 H   0  0  0  0  0  0  0  0  0  0  0  0
   26.5315   13.4364   11.2368 H   0  0  0  0  0  0  0  0  0  0  0  0
   23.4561   14.3339    9.8153 H   0  0  0  0  0  0  0  0  0  0  0  0
   21.4793   14.8499   11.2416 H   0  0  0  0  0  0  0  0  0  0  0  0
   21.7150   16.3749   13.2248 H   0  0  0  0  0  0  0  0  0  0  0  0
   26.8997   16.4186   12.9522 H   0  0  0  0  0  0  0  0  0  0  0  0
   26.6436   17.7436   11.8394 H   0  0  0  0  0  0  0  0  0  0  0  0
   27.4207   18.3699   14.4087 H   0  0  0  0  0  0  0  0  0  0  0  0
   25.0910   18.2551   16.3900 H   0  0  0  0  0  0  0  0  0  0  0  0
   26.3187   16.9711   16.1256 H   0  0  0  0  0  0  0  0  0  0  0  0
   26.8429   18.4235   18.0946 H   0  0  0  0  0  0  0  0  0  0  0  0
   28.1079   18.4936   16.8041 H   0  0  0  0  0  0  0  0  0  0  0  0
   26.9319   21.7718   15.6016 H   0  0  0  0  0  0  0  0  0  0  0  0
   25.7364   16.9341    8.8168 H   0  0  0  0  0  0  0  0  0  0  0  0
   27.6967   16.4025    7.3482 H   0  0  0  0  0  0  0  0  0  0  0  0
   29.7537   14.5015    7.0486 H   0  0  0  0  0  0  0  0  0  0  0  0
   29.1199   10.7719    4.6543 H   0  0  0  0  0  0  0  0  0  0  0  0
  1  2  1  0
  2  3  1  0
  3  4  2  0
  4  5  1  0
  5  6  1  0
  6  7  2  0
  6  8  2  0
  6  9  1  0
  9 10  1  0
 10 11  2  0
 11 12  1  0
 12 13  2  0
 13 14  1  0
 14 15  1  0
 15 16  2  0
 16 17  1  0
 17 18  2  0
 18 19  1  0
 19 20  2  0
 20 21  1  0
 21 22  1  0
 22 23  1  0
 23 24  1  0
 24 25  1  0
 25 26  1  0
 26 27  2  0
 26 28  1  0
 28 29  1  0
 29 30  2  0
 22 31  1  0
 31 32  2  0
 14 33  2  0
 33 34  1  0
 34 35  2  0
 35 36  1  0
  5 37  1  0
 37 38  2  0
 38  3  1  0
 36 10  1  0
 35 12  1  0
 20 15  1  0
 29 23  1  0
 31 19  1  0
  1 39  1  0
  1 40  1  0
  1 41  1  0
  2 42  1  0
  2 43  1  0
  4 44  1  0
 11 45  1  0
 13 46  1  0
 16 47  1  0
 17 48  1  0
 18 49  1  0
 21 50  1  0
 21 51  1  0
 23 52  1  6
 24 53  1  0
 24 54  1  0
 25 55  1  0
 25 56  1  0
 28 57  1  0
 33 58  1  0
 34 59  1  0
 36 60  1  0
 37 61  1  0
M  END
>  <meeko>  (322) 
{"is_sidechain": [true], "free_energy": -13.12, "intermolecular_energy": 0.0, "internal_energy": -13.12, "cluster_size": 8, "cluster_id": 1, "rank_in_cluster": 1}

>  <_RMSD_MCS_to_ref>  (322) 
1.5544087657727337

$$$$
ligand
     RDKit          3D

 62 67  0  0  0  0  0  0  0  0999 V2000
   24.8710    9.6160    7.7820 C   0  0  0  0  0  0  0  0  0  0  0  0
   25.4240   10.9650    7.3490 C   0  0  0  0  0  0  0  0  0  0  0  0
   26.7820   10.8500    6.7520 C   0  0  0  0  0  0  0  0  0  0  0  0
   27.1500   10.8660    5.4210 C   0  0  0  0  0  0  0  0  0  0  0  0
   28.5040   10.6880    5.4450 N   0  0  0  0  0  0  0  0  0  0  0  0
   29.5450   10.8610    4.1310 S   0  0  0  0  0  6  0  0  0  0  0  0
   28.8280   10.2730    3.0150 O   0  0  0  0  0  0  0  0  0  0  0  0
   30.8110   10.3210    4.5900 O   0  0  0  0  0  0  0  0  0  0  0  0
   29.6960   12.4660    3.8910 O   0  0  0  0  0  0  0  0  0  0  0  0
   28.7310   13.3660    4.2640 C   0  0  0  0  0  0  0  0  0  0  0  0
   28.1580   14.0840    3.2120 C   0  0  0  0  0  0  0  0  0  0  0  0
   27.1650   15.0330    3.4610 C   0  0  0  0  0  0  0  0  0  0  0  0
   26.7330   15.2730    4.7750 C   0  0  0  0  0  0  0  0  0  0  0  0
   25.7490   16.2110    5.0900 C   0  0  0  0  0  0  0  0  0  0  0  0
   25.3090   16.4700    6.3430 N   0  0  0  0  0  0  0  0  0  0  0  0
   25.8550   15.7660    7.3650 C   0  0  0  0  0  0  0  0  0  0  0  0
   25.3320   16.0870    8.7120 C   0  0  0  0  0  0  0  0  0  0  0  0
   24.1350   15.5030    9.2080 C   0  0  0  0  0  0  0  0  0  0  0  0
   23.6390   15.8010   10.4820 C   0  0  0  0  0  0  0  0  0  0  0  0
   24.3530   16.7000   11.2470 C   0  0  0  0  0  0  0  0  0  0  0  0
   25.5230   17.3000   10.7980 C   0  0  0  0  0  0  0  0  0  0  0  0
   26.0210   17.0050    9.5380 C   0  0  0  0  0  0  0  0  0  0  0  0
   26.0700   18.2090   11.8470 C   0  0  0  0  0  0  0  0  0  0  0  0
   25.0520   18.1350   12.8890 N   0  0  0  0  0  0  0  0  0  0  0  0
   25.2400   18.6630   14.2360 C   0  0  2  0  0  0  0  0  0  0  0  0
   26.1450   19.8910   14.2590 C   0  0  0  0  0  0  0  0  0  0  0  0
   26.2180   20.4370   15.6780 C   0  0  0  0  0  0  0  0  0  0  0  0
   26.6830   19.3740   16.6470 C   0  0  0  0  0  0  0  0  0  0  0  0
   27.3980   19.6310   17.6100 O   0  0  0  0  0  0  0  0  0  0  0  0
   26.2470   18.0950   16.4100 N   0  0  0  0  0  0  0  0  0  0  0  0
   25.8050   17.6070   15.2010 C   0  0  0  0  0  0  0  0  0  0  0  0
   25.8820   16.4060   14.9530 O   0  0  0  0  0  0  0  0  0  0  0  0
   24.0740   17.1950   12.5990 C   0  0  0  0  0  0  0  0  0  0  0  0
   23.1520   16.8310   13.3030 O   0  0  0  0  0  0  0  0  0  0  0  0
   26.8540   14.8150    7.1460 C   0  0  0  0  0  0  0  0  0  0  0  0
   27.3030   14.5570    5.8410 C   0  0  0  0  0  0  0  0  0  0  0  0
   28.3050   13.6050    5.5740 C   0  0  0  0  0  0  0  0  0  0  0  0
   28.9240   10.6540    6.7360 C   0  0  0  0  0  0  0  0  0  0  0  0
   27.8970   10.7250    7.5570 N   0  0  0  0  0  0  0  0  0  0  0  0
   24.8497    9.5640    8.8806 H   0  0  0  0  0  0  0  0  0  0  0  0
   23.8507    9.4948    7.3893 H   0  0  0  0  0  0  0  0  0  0  0  0
   25.5127    8.8135    7.3893 H   0  0  0  0  0  0  0  0  0  0  0  0
   24.7449   11.4033    6.6029 H   0  0  0  0  0  0  0  0  0  0  0  0
   25.5008   11.6013    8.2430 H   0  0  0  0  0  0  0  0  0  0  0  0
   26.5008   10.9931    4.5421 H   0  0  0  0  0  0  0  0  0  0  0  0
   28.4915   13.9004    2.1800 H   0  0  0  0  0  0  0  0  0  0  0  0
   26.7201   15.5939    2.6259 H   0  0  0  0  0  0  0  0  0  0  0  0
   25.2999   16.7793    4.2621 H   0  0  0  0  0  0  0  0  0  0  0  0
   23.5823   14.7961    8.5718 H   0  0  0  0  0  0  0  0  0  0  0  0
   22.7158   15.3366   10.8589 H   0  0  0  0  0  0  0  0  0  0  0  0
   26.9464   17.4822    9.1831 H   0  0  0  0  0  0  0  0  0  0  0  0
   27.0429   17.8514   12.2153 H   0  0  0  0  0  0  0  0  0  0  0  0
   26.2570   19.2317   11.4877 H   0  0  0  0  0  0  0  0  0  0  0  0
   24.2357   18.9571   14.5750 H   0  0  0  0  0  0  0  0  0  0  0  0
   27.1535   19.6103   13.9212 H   0  0  0  0  0  0  0  0  0  0  0  0
   25.7367   20.6617   13.5887 H   0  0  0  0  0  0  0  0  0  0  0  0
   26.9247   21.2796   15.7028 H   0  0  0  0  0  0  0  0  0  0  0  0
   25.2123   20.7669   15.9775 H   0  0  0  0  0  0  0  0  0  0  0  0
   26.2507   17.4424   17.2068 H   0  0  0  0  0  0  0  0  0  0  0  0
   27.2889   14.2683    7.9957 H   0  0  0  0  0  0  0  0  0  0  0  0
   28.7575   13.0434    6.4046 H   0  0  0  0  0  0  0  0  0  0  0  0
   29.9750   10.5778    7.0516 H   0  0  0  0  0  0  0  0  0  0  0  0
  1  2  1  0
  2  3  1  0
  3  4  2  0
  4  5  1  0
  5  6  1  0
  6  7  2  0
  6  8  2  0
  6  9  1  0
  9 10  1  0
 10 11  2  0
 11 12  1  0
 12 13  2  0
 13 14  1  0
 14 15  2  0
 15 16  1  0
 16 17  1  0
 17 18  2  0
 18 19  1  0
 19 20  2  0
 20 21  1  0
 21 22  2  0
 21 23  1  0
 23 24  1  0
 24 25  1  0
 25 26  1  0
 26 27  1  0
 27 28  1  0
 28 29  2  0
 28 30  1  0
 30 31  1  0
 31 32  2  0
 24 33  1  0
 33 34  2  0
 16 35  2  0
 35 36  1  0
 36 37  2  0
  5 38  1  0
 38 39  2  0
 39  3  1  0
 37 10  1  0
 36 13  1  0
 22 17  1  0
 31 25  1  0
 33 20  1  0
  1 40  1  0
  1 41  1  0
  1 42  1  0
  2 43  1  0
  2 44  1  0
  4 45  1  0
 11 46  1  0
 12 47  1  0
 14 48  1  0
 18 49  1  0
 19 50  1  0
 22 51  1  0
 23 52  1  0
 23 53  1  0
 25 54  1  1
 26 55  1  0
 26 56  1  0
 27 57  1  0
 27 58  1  0
 30 59  1  0
 35 60  1  0
 37 61  1  0
 38 62  1  0
M  END
>  <meeko>  (323) 
{"is_sidechain": [true], "free_energy": -13.11, "intermolecular_energy": 0.0, "internal_energy": -13.11, "cluster_size": 20, "cluster_id": 1, "rank_in_cluster": 1}

>  <_RMSD_MCS_to_ref>  (323) 
1.621376494476871

$$$$
ligand
     RDKit          3D

 61 66  0  0  0  0  0  0  0  0999 V2000
   24.8710    9.6160    7.7820 C   0  0  0  0  0  0  0  0  0  0  0  0
   25.4240   10.9650    7.3490 C   0  0  0  0  0  0  0  0  0  0  0  0
   26.8190   11.1770    7.8230 C   0  0  0  0  0  0  0  0  0  0  0  0
   27.2830   12.0260    8.8070 C   0  0  0  0  0  0  0  0  0  0  0  0
   28.6320   11.8020    8.8380 N   0  0  0  0  0  0  0  0  0  0  0  0
   29.7650   12.8050    9.5910 S   0  0  0  0  0  6  0  0  0  0  0  0
   29.4480   12.7180   11.0050 O   0  0  0  0  0  0  0  0  0  0  0  0
   31.0480   12.3750    9.0680 O   0  0  0  0  0  0  0  0  0  0  0  0
   29.4060   14.3110    9.0690 O   0  0  0  0  0  0  0  0  0  0  0  0
   28.8700   14.4670    7.8180 C   0  0  0  0  0  0  0  0  0  0  0  0
   29.6110   14.0460    6.7200 C   0  0  0  0  0  0  0  0  0  0  0  0
   29.1080   14.2590    5.4380 C   0  0  0  0  0  0  0  0  0  0  0  0
   27.8980   14.9020    5.2220 C   0  0  0  0  0  0  0  0  0  0  0  0
   27.4960   15.0830    3.9580 N   0  0  0  0  0  0  0  0  0  0  0  0
   26.3330   15.7220    3.7720 C   0  0  0  0  0  0  0  0  0  0  0  0
   25.5400   16.2030    4.7330 N   0  0  0  0  0  0  0  0  0  0  0  0
   25.9750   16.0030    5.9930 C   0  0  0  0  0  0  0  0  0  0  0  0
   27.1580   15.3410    6.3330 C   0  0  0  0  0  0  0  0  0  0  0  0
   27.6320   15.1170    7.6630 C   0  0  0  0  0  0  0  0  0  0  0  0
   26.8540   15.5170    8.8550 C   0  0  0  0  0  0  0  0  0  0  0  0
   25.6360   14.8550    9.1630 C   0  0  0  0  0  0  0  0  0  0  0  0
   24.9030   15.1710   10.3090 C   0  0  0  0  0  0  0  0  0  0  0  0
   25.4240   16.1350   11.1470 C   0  0  0  0  0  0  0  0  0  0  0  0
   26.6210   16.7940   10.8830 C   0  0  0  0  0  0  0  0  0  0  0  0
   27.3380   16.5080    9.7320 C   0  0  0  0  0  0  0  0  0  0  0  0
   26.9330   17.7470   11.9900 C   0  0  0  0  0  0  0  0  0  0  0  0
   25.8410   17.5120   12.9240 N   0  0  0  0  0  0  0  0  0  0  0  0
   25.6040   18.3240   14.1110 C   0  0  1  0  0  0  0  0  0  0  0  0
   26.3160   17.7720   15.3420 C   0  0  0  0  0  0  0  0  0  0  0  0
   25.9520   18.6120   16.5560 C   0  0  0  0  0  0  0  0  0  0  0  0
   26.2740   20.0690   16.3240 C   0  0  0  0  0  0  0  0  0  0  0  0
   26.6890   20.8010   17.2170 O   0  0  0  0  0  0  0  0  0  0  0  0
   26.0620   20.5500   15.0560 N   0  0  0  0  0  0  0  0  0  0  0  0
   26.0130   19.7910   13.9090 C   0  0  0  0  0  0  0  0  0  0  0  0
   26.2930   20.2930   12.8220 O   0  0  0  0  0  0  0  0  0  0  0  0
   24.9000   16.6280   12.4250 C   0  0  0  0  0  0  0  0  0  0  0  0
   23.8420   16.2930   12.9210 O   0  0  0  0  0  0  0  0  0  0  0  0
   28.9520   10.9060    7.8680 C   0  0  0  0  0  0  0  0  0  0  0  0
   27.8690   10.4960    7.2400 N   0  0  0  0  0  0  0  0  0  0  0  0
   24.8497    9.5640    8.8806 H   0  0  0  0  0  0  0  0  0  0  0  0
   23.8507    9.4948    7.3893 H   0  0  0  0  0  0  0  0  0  0  0  0
   25.5127    8.8135    7.3893 H   0  0  0  0  0  0  0  0  0  0  0  0
   25.4109   11.0175    6.2503 H   0  0  0  0  0  0  0  0  0  0  0  0
   24.7926   11.7483    7.7937 H   0  0  0  0  0  0  0  0  0  0  0  0
   26.7004   12.7243    9.4258 H   0  0  0  0  0  0  0  0  0  0  0  0
   30.5829   13.5506    6.8613 H   0  0  0  0  0  0  0  0  0  0  0  0
   29.6875   13.9069    4.5719 H   0  0  0  0  0  0  0  0  0  0  0  0
   26.0011   15.8633    2.7328 H   0  0  0  0  0  0  0  0  0  0  0  0
   25.3532   16.3892    6.8141 H   0  0  0  0  0  0  0  0  0  0  0  0
   25.2613   14.0755    8.4834 H   0  0  0  0  0  0  0  0  0  0  0  0
   23.9491   14.6716   10.5342 H   0  0  0  0  0  0  0  0  0  0  0  0
   28.2704   17.0463    9.5066 H   0  0  0  0  0  0  0  0  0  0  0  0
   27.9057   17.5179   12.4497 H   0  0  0  0  0  0  0  0  0  0  0  0
   27.0104   18.7933   11.6596 H   0  0  0  0  0  0  0  0  0  0  0  0
   24.5178   18.2804   14.2794 H   0  0  0  0  0  0  0  0  0  0  0  0
   26.0044   16.7305   15.5098 H   0  0  0  0  0  0  0  0  0  0  0  0
   27.4040   17.8078   15.1837 H   0  0  0  0  0  0  0  0  0  0  0  0
   24.8750   18.5091   16.7545 H   0  0  0  0  0  0  0  0  0  0  0  0
   26.5387   18.2567   17.4159 H   0  0  0  0  0  0  0  0  0  0  0  0
   25.9281   21.5662   14.9542 H   0  0  0  0  0  0  0  0  0  0  0  0
   29.9739   10.5696    7.6388 H   0  0  0  0  0  0  0  0  0  0  0  0
  1  2  1  0
  2  3  1  0
  3  4  2  0
  4  5  1  0
  5  6  1  0
  6  7  2  0
  6  8  2  0
  6  9  1  0
  9 10  1  0
 10 11  2  0
 11 12  1  0
 12 13  2  0
 13 14  1  0
 14 15  2  0
 15 16  1  0
 16 17  2  0
 17 18  1  0
 18 19  2  0
 19 20  1  0
 20 21  2  0
 21 22  1  0
 22 23  2  0
 23 24  1  0
 24 25  2  0
 24 26  1  0
 26 27  1  0
 27 28  1  0
 28 29  1  0
 29 30  1  0
 30 31  1  0
 31 32  2  0
 31 33  1  0
 33 34  1  0
 34 35  2  0
 27 36  1  0
 36 37  2  0
  5 38  1  0
 38 39  2  0
 39  3  1  0
 19 10  1  0
 25 20  1  0
 34 28  1  0
 18 13  1  0
 36 23  1  0
  1 40  1  0
  1 41  1  0
  1 42  1  0
  2 43  1  0
  2 44  1  0
  4 45  1  0
 11 46  1  0
 12 47  1  0
 15 48  1  0
 17 49  1  0
 21 50  1  0
 22 51  1  0
 25 52  1  0
 26 53  1  0
 26 54  1  0
 28 55  1  1
 29 56  1  0
 29 57  1  0
 30 58  1  0
 30 59  1  0
 33 60  1  0
 38 61  1  0
M  END
>  <meeko>  (324) 
{"is_sidechain": [true], "free_energy": -13.11, "intermolecular_energy": 0.0, "internal_energy": -13.11, "cluster_size": 8, "cluster_id": 1, "rank_in_cluster": 1}

>  <_RMSD_MCS_to_ref>  (324) 
1.2904625445735989

$$$$
ligand
     RDKit          3D

 56 60  0  0  0  0  0  0  0  0999 V2000
   24.8710    9.6160    7.7820 C   0  0  0  0  0  0  0  0  0  0  0  0
   25.4240   10.9650    7.3490 C   0  0  0  0  0  0  0  0  0  0  0  0
   26.9120   10.9970    7.3760 C   0  0  0  0  0  0  0  0  0  0  0  0
   27.7700   11.9660    6.8960 C   0  0  0  0  0  0  0  0  0  0  0  0
   29.0160   11.4660    7.1490 N   0  0  0  0  0  0  0  0  0  0  0  0
   30.4640   12.3160    7.0080 S   0  0  0  0  0  6  0  0  0  0  0  0
   30.5090   12.7500    5.6240 O   0  0  0  0  0  0  0  0  0  0  0  0
   31.4710   11.4300    7.5590 O   0  0  0  0  0  0  0  0  0  0  0  0
   30.3180   13.6220    7.9710 O   0  0  0  0  0  0  0  0  0  0  0  0
   29.1150   14.0030    8.4950 C   0  0  0  0  0  0  0  0  0  0  0  0
   28.3020   14.7680    7.6670 C   0  0  0  0  0  0  0  0  0  0  0  0
   27.0570   15.2040    8.1230 C   0  0  0  0  0  0  0  0  0  0  0  0
   26.6410   14.8680    9.4110 C   0  0  0  0  0  0  0  0  0  0  0  0
   25.3410   15.2880    9.9740 C   0  0  0  0  0  0  0  0  0  0  0  0
   24.1180   15.0040    9.3220 C   0  0  0  0  0  0  0  0  0  0  0  0
   22.8680   15.3870    9.8540 C   0  0  0  0  0  0  0  0  0  0  0  0
   22.7970   16.0700   11.0630 C   0  0  0  0  0  0  0  0  0  0  0  0
   23.9900   16.3540   11.6950 C   0  0  0  0  0  0  0  0  0  0  0  0
   25.2360   15.9920   11.1750 C   0  0  0  0  0  0  0  0  0  0  0  0
   26.3100   16.4870   12.0930 C   0  0  0  0  0  0  0  0  0  0  0  0
   25.5590   17.0160   13.2240 N   0  0  0  0  0  0  0  0  0  0  0  0
   26.2170   17.7790   14.2780 C   0  0  2  0  0  0  0  0  0  0  0  0
   25.4960   17.7040   15.6240 C   0  0  0  0  0  0  0  0  0  0  0  0
   26.2920   18.4740   16.6660 C   0  0  0  0  0  0  0  0  0  0  0  0
   26.5100   19.9070   16.2400 C   0  0  0  0  0  0  0  0  0  0  0  0
   26.7270   20.8040   17.0500 O   0  0  0  0  0  0  0  0  0  0  0  0
   26.5370   20.1520   14.8910 N   0  0  0  0  0  0  0  0  0  0  0  0
   26.4300   19.2430   13.8620 C   0  0  0  0  0  0  0  0  0  0  0  0
   26.6020   19.6040   12.6980 O   0  0  0  0  0  0  0  0  0  0  0  0
   24.1990   17.0480   12.9710 C   0  0  0  0  0  0  0  0  0  0  0  0
   23.3150   17.5470   13.6390 O   0  0  0  0  0  0  0  0  0  0  0  0
   27.4240   14.1120   10.2220 N   0  0  0  0  0  0  0  0  0  0  0  0
   28.6330   13.7060    9.7610 C   0  0  0  0  0  0  0  0  0  0  0  0
   28.8960   10.2950    7.8250 C   0  0  0  0  0  0  0  0  0  0  0  0
   27.6270    9.9690    7.9590 N   0  0  0  0  0  0  0  0  0  0  0  0
   24.8497    9.5640    8.8806 H   0  0  0  0  0  0  0  0  0  0  0  0
   23.8507    9.4948    7.3893 H   0  0  0  0  0  0  0  0  0  0  0  0
   25.5127    8.8135    7.3893 H   0  0  0  0  0  0  0  0  0  0  0  0
   25.0836   11.1752    6.3243 H   0  0  0  0  0  0  0  0  0  0  0  0
   25.0568   11.7235    8.0560 H   0  0  0  0  0  0  0  0  0  0  0  0
   27.5099   12.9223    6.4188 H   0  0  0  0  0  0  0  0  0  0  0  0
   28.6395   15.0296    6.6532 H   0  0  0  0  0  0  0  0  0  0  0  0
   26.4087   15.8082    7.4713 H   0  0  0  0  0  0  0  0  0  0  0  0
   24.1422   14.4641    8.3639 H   0  0  0  0  0  0  0  0  0  0  0  0
   21.9442   15.1436    9.3087 H   0  0  0  0  0  0  0  0  0  0  0  0
   21.8318   16.3708   11.4966 H   0  0  0  0  0  0  0  0  0  0  0  0
   26.9708   15.6656   12.4071 H   0  0  0  0  0  0  0  0  0  0  0  0
   26.9697   17.2325   11.6249 H   0  0  0  0  0  0  0  0  0  0  0  0
   27.1985   17.3031   14.4196 H   0  0  0  0  0  0  0  0  0  0  0  0
   24.4930   18.1453   15.5283 H   0  0  0  0  0  0  0  0  0  0  0  0
   25.4045   16.6526   15.9341 H   0  0  0  0  0  0  0  0  0  0  0  0
   25.7413   18.4628   17.6181 H   0  0  0  0  0  0  0  0  0  0  0  0
   27.2741   17.9918   16.7794 H   0  0  0  0  0  0  0  0  0  0  0  0
   26.6514   21.1372   14.6132 H   0  0  0  0  0  0  0  0  0  0  0  0
   29.2680   13.1065   10.4298 H   0  0  0  0  0  0  0  0  0  0  0  0
   29.7399    9.7018    8.2071 H   0  0  0  0  0  0  0  0  0  0  0  0
  1  2  1  0
  2  3  1  0
  3  4  2  0
  4  5  1  0
  5  6  1  0
  6  7  2  0
  6  8  2  0
  6  9  1  0
  9 10  1  0
 10 11  2  0
 11 12  1  0
 12 13  2  0
 13 14  1  0
 14 15  2  0
 15 16  1  0
 16 17  2  0
 17 18  1  0
 18 19  2  0
 19 20  1  0
 20 21  1  0
 21 22  1  0
 22 23  1  0
 23 24  1  0
 24 25  1  0
 25 26  2  0
 25 27  1  0
 27 28  1  0
 28 29  2  0
 21 30  1  0
 30 31  2  0
 13 32  1  0
 32 33  2  0
  5 34  1  0
 34 35  2  0
 35  3  1  0
 33 10  1  0
 19 14  1  0
 28 22  1  0
 30 18  1  0
  1 36  1  0
  1 37  1  0
  1 38  1  0
  2 39  1  0
  2 40  1  0
  4 41  1  0
 11 42  1  0
 12 43  1  0
 15 44  1  0
 16 45  1  0
 17 46  1  0
 20 47  1  0
 20 48  1  0
 22 49  1  1
 23 50  1  0
 23 51  1  0
 24 52  1  0
 24 53  1  0
 27 54  1  0
 33 55  1  0
 34 56  1  0
M  END
>  <meeko>  (325) 
{"is_sidechain": [true], "free_energy": -13.1, "intermolecular_energy": 0.0, "internal_energy": -13.1, "cluster_size": 14, "cluster_id": 1, "rank_in_cluster": 1}

>  <_RMSD_MCS_to_ref>  (325) 
1.1374982783869758

$$$$
ligand
     RDKit          3D

 61 66  0  0  0  0  0  0  0  0999 V2000
   24.8710    9.6160    7.7820 C   0  0  0  0  0  0  0  0  0  0  0  0
   25.4240   10.9650    7.3490 C   0  0  0  0  0  0  0  0  0  0  0  0
   25.0280   11.3160    5.9590 C   0  0  0  0  0  0  0  0  0  0  0  0
   23.9670   12.0870    5.5260 C   0  0  0  0  0  0  0  0  0  0  0  0
   24.0610   12.0510    4.1630 N   0  0  0  0  0  0  0  0  0  0  0  0
   23.1800   13.0080    3.0880 S   0  0  0  0  0  6  0  0  0  0  0  0
   23.4690   12.4400    1.7840 O   0  0  0  0  0  0  0  0  0  0  0  0
   21.8360   13.0190    3.6370 O   0  0  0  0  0  0  0  0  0  0  0  0
   23.8290   14.4940    3.1990 O   0  0  0  0  0  0  0  0  0  0  0  0
   25.0930   14.7550    3.5890 C   0  0  0  0  0  0  0  0  0  0  0  0
   26.1070   14.6790    2.6630 C   0  0  0  0  0  0  0  0  0  0  0  0
   27.2750   14.9910    3.2990 N   0  0  0  0  0  0  0  0  0  0  0  0
   27.0360   15.2640    4.6260 C   0  0  0  0  0  0  0  0  0  0  0  0
   27.9370   15.6250    5.6320 C   0  0  0  0  0  0  0  0  0  0  0  0
   27.4290   15.8530    6.9140 C   0  0  0  0  0  0  0  0  0  0  0  0
   26.0640   15.7270    7.1980 C   0  0  0  0  0  0  0  0  0  0  0  0
   25.5510   15.9750    8.5570 C   0  0  0  0  0  0  0  0  0  0  0  0
   24.3280   15.3930    8.9790 C   0  0  0  0  0  0  0  0  0  0  0  0
   23.8160   15.6150   10.2610 C   0  0  0  0  0  0  0  0  0  0  0  0
   24.5520   16.4180   11.1070 C   0  0  0  0  0  0  0  0  0  0  0  0
   25.7560   17.0040   10.7270 C   0  0  0  0  0  0  0  0  0  0  0  0
   26.2650   16.7940    9.4560 C   0  0  0  0  0  0  0  0  0  0  0  0
   26.2980   17.8240   11.8480 C   0  0  0  0  0  0  0  0  0  0  0  0
   25.3540   17.5620   12.9240 N   0  0  0  0  0  0  0  0  0  0  0  0
   25.3810   18.3350   14.1610 C   0  0  2  0  0  0  0  0  0  0  0  0
   26.0620   19.6960   14.0230 C   0  0  0  0  0  0  0  0  0  0  0  0
   25.9780   20.4380   15.3490 C   0  0  0  0  0  0  0  0  0  0  0  0
   26.5920   19.6300   16.4680 C   0  0  0  0  0  0  0  0  0  0  0  0
   27.0060   20.1500   17.5000 O   0  0  0  0  0  0  0  0  0  0  0  0
   26.5860   18.2650   16.3180 N   0  0  0  0  0  0  0  0  0  0  0  0
   26.0130   17.5280   15.3070 C   0  0  0  0  0  0  0  0  0  0  0  0
   25.9320   16.3040   15.4020 O   0  0  0  0  0  0  0  0  0  0  0  0
   24.2650   16.8210   12.4890 C   0  0  0  0  0  0  0  0  0  0  0  0
   23.2440   16.5500   13.0910 O   0  0  0  0  0  0  0  0  0  0  0  0
   25.1860   15.3590    6.1580 C   0  0  0  0  0  0  0  0  0  0  0  0
   25.6610   15.1230    4.8470 C   0  0  0  0  0  0  0  0  0  0  0  0
   25.1780   11.3620    3.8140 C   0  0  0  0  0  0  0  0  0  0  0  0
   25.7750   10.8780    4.8820 N   0  0  0  0  0  0  0  0  0  0  0  0
   24.8497    9.5640    8.8806 H   0  0  0  0  0  0  0  0  0  0  0  0
   23.8507    9.4948    7.3893 H   0  0  0  0  0  0  0  0  0  0  0  0
   25.5127    8.8135    7.3893 H   0  0  0  0  0  0  0  0  0  0  0  0
   25.0436   11.7392    8.0316 H   0  0  0  0  0  0  0  0  0  0  0  0
   26.5219   10.9056    7.3820 H   0  0  0  0  0  0  0  0  0  0  0  0
   23.2177   12.6103    6.1381 H   0  0  0  0  0  0  0  0  0  0  0  0
   25.9972   14.4145    1.6009 H   0  0  0  0  0  0  0  0  0  0  0  0
   28.2014   15.0180    2.8496 H   0  0  0  0  0  0  0  0  0  0  0  0
   29.0119   15.7264    5.4213 H   0  0  0  0  0  0  0  0  0  0  0  0
   28.1198   16.1389    7.7209 H   0  0  0  0  0  0  0  0  0  0  0  0
   23.7693   14.7520    8.2812 H   0  0  0  0  0  0  0  0  0  0  0  0
   22.8640   15.1670   10.5821 H   0  0  0  0  0  0  0  0  0  0  0  0
   27.2138   17.2600    9.1518 H   0  0  0  0  0  0  0  0  0  0  0  0
   27.3123   17.4987   12.1226 H   0  0  0  0  0  0  0  0  0  0  0  0
   26.3919   18.8918   11.6011 H   0  0  0  0  0  0  0  0  0  0  0  0
   24.3280   18.5411   14.4033 H   0  0  0  0  0  0  0  0  0  0  0  0
   27.1175   19.5525   13.7486 H   0  0  0  0  0  0  0  0  0  0  0  0
   25.5580   20.2822   13.2405 H   0  0  0  0  0  0  0  0  0  0  0  0
   26.5155   21.3936   15.2599 H   0  0  0  0  0  0  0  0  0  0  0  0
   24.9174   20.6096   15.5851 H   0  0  0  0  0  0  0  0  0  0  0  0
   27.0693   17.7273   17.0516 H   0  0  0  0  0  0  0  0  0  0  0  0
   24.1118   15.2535    6.3702 H   0  0  0  0  0  0  0  0  0  0  0  0
   25.5341   11.2273    2.7820 H   0  0  0  0  0  0  0  0  0  0  0  0
  1  2  1  0
  2  3  1  0
  3  4  2  0
  4  5  1  0
  5  6  1  0
  6  7  2  0
  6  8  2  0
  6  9  1  0
  9 10  1  0
 10 11  2  0
 11 12  1  0
 12 13  1  0
 13 14  2  0
 14 15  1  0
 15 16  2  0
 16 17  1  0
 17 18  2  0
 18 19  1  0
 19 20  2  0
 20 21  1  0
 21 22  2  0
 21 23  1  0
 23 24  1  0
 24 25  1  0
 25 26  1  0
 26 27  1  0
 27 28  1  0
 28 29  2  0
 28 30  1  0
 30 31  1  0
 31 32  2  0
 24 33  1  0
 33 34  2  0
 16 35  1  0
 35 36  2  0
  5 37  1  0
 37 38  2  0
 38  3  1  0
 36 10  1  0
 36 13  1  0
 22 17  1  0
 31 25  1  0
 33 20  1  0
  1 39  1  0
  1 40  1  0
  1 41  1  0
  2 42  1  0
  2 43  1  0
  4 44  1  0
 11 45  1  0
 12 46  1  0
 14 47  1  0
 15 48  1  0
 18 49  1  0
 19 50  1  0
 22 51  1  0
 23 52  1  0
 23 53  1  0
 25 54  1  1
 26 55  1  0
 26 56  1  0
 27 57  1  0
 27 58  1  0
 30 59  1  0
 35 60  1  0
 37 61  1  0
M  END
>  <meeko>  (326) 
{"is_sidechain": [true], "free_energy": -13.1, "intermolecular_energy": 0.0, "internal_energy": -13.1, "cluster_size": 3, "cluster_id": 2, "rank_in_cluster": 1}

>  <_RMSD_MCS_to_ref>  (326) 
1.665712175806967

$$$$
ligand
     RDKit          3D

 56 60  0  0  0  0  0  0  0  0999 V2000
   24.8540    9.4020    7.6050 C   0  0  0  0  0  0  0  0  0  0  0  0
   25.5230   10.7550    7.4270 C   0  0  0  0  0  0  0  0  0  0  0  0
   25.3990   11.2650    6.0340 C   0  0  0  0  0  0  0  0  0  0  0  0
   26.1510   12.2310    5.3940 C   0  0  0  0  0  0  0  0  0  0  0  0
   25.6150   12.2920    4.1390 N   0  0  0  0  0  0  0  0  0  0  0  0
   26.1320   13.3080    2.8990 S   0  0  0  0  0  6  0  0  0  0  0  0
   27.4260   12.7560    2.5270 O   0  0  0  0  0  0  0  0  0  0  0  0
   25.0540   13.3510    1.9270 O   0  0  0  0  0  0  0  0  0  0  0  0
   26.4030   14.7980    3.4920 O   0  0  0  0  0  0  0  0  0  0  0  0
   26.0220   15.1080    4.7710 C   0  0  0  0  0  0  0  0  0  0  0  0
   27.0000   15.5760    5.6300 C   0  0  0  0  0  0  0  0  0  0  0  0
   26.6450   15.8630    6.9480 C   0  0  0  0  0  0  0  0  0  0  0  0
   25.3280   15.6670    7.3830 C   0  0  0  0  0  0  0  0  0  0  0  0
   24.9130   15.9630    8.7620 C   0  0  0  0  0  0  0  0  0  0  0  0
   23.7920   15.3070    9.3330 C   0  0  0  0  0  0  0  0  0  0  0  0
   23.3770   15.5680   10.6420 C   0  0  0  0  0  0  0  0  0  0  0  0
   24.1020   16.4940   11.3630 C   0  0  0  0  0  0  0  0  0  0  0  0
   25.2070   17.1560   10.8380 C   0  0  0  0  0  0  0  0  0  0  0  0
   25.6240   16.9000    9.5410 C   0  0  0  0  0  0  0  0  0  0  0  0
   25.7900   18.0650   11.8670 C   0  0  0  0  0  0  0  0  0  0  0  0
   24.8490   17.9450   12.9720 N   0  0  0  0  0  0  0  0  0  0  0  0
   25.1490   18.5030   14.2860 C   0  0  1  0  0  0  0  0  0  0  0  0
   26.3390   17.8430   14.9800 C   0  0  0  0  0  0  0  0  0  0  0  0
   26.5230   18.4560   16.3600 C   0  0  0  0  0  0  0  0  0  0  0  0
   26.6990   19.9540   16.2740 C   0  0  0  0  0  0  0  0  0  0  0  0
   27.2620   20.5970   17.1550 O   0  0  0  0  0  0  0  0  0  0  0  0
   26.1230   20.5820   15.1990 N   0  0  0  0  0  0  0  0  0  0  0  0
   25.3430   20.0260   14.2120 C   0  0  0  0  0  0  0  0  0  0  0  0
   24.7660   20.7440   13.3970 O   0  0  0  0  0  0  0  0  0  0  0  0
   23.9040   16.9550   12.7420 C   0  0  0  0  0  0  0  0  0  0  0  0
   23.0710   16.5100   13.5060 O   0  0  0  0  0  0  0  0  0  0  0  0
   24.4340   15.1760    6.4330 C   0  0  0  0  0  0  0  0  0  0  0  0
   24.7510   14.8900    5.1450 N   0  0  0  0  0  0  0  0  0  0  0  0
   24.5900   11.4070    4.0460 C   0  0  0  0  0  0  0  0  0  0  0  0
   24.4320   10.7620    5.1860 N   0  0  0  0  0  0  0  0  0  0  0  0
   24.7464    9.1845    8.6779 H   0  0  0  0  0  0  0  0  0  0  0  0
   23.8606    9.4192    7.1330 H   0  0  0  0  0  0  0  0  0  0  0  0
   25.4708    8.6230    7.1330 H   0  0  0  0  0  0  0  0  0  0  0  0
   25.0518   11.4759    8.1114 H   0  0  0  0  0  0  0  0  0  0  0  0
   26.5937   10.6338    7.6481 H   0  0  0  0  0  0  0  0  0  0  0  0
   26.9886   12.8163    5.8012 H   0  0  0  0  0  0  0  0  0  0  0  0
   28.0337   15.7185    5.2818 H   0  0  0  0  0  0  0  0  0  0  0  0
   27.4023   16.2448    7.6486 H   0  0  0  0  0  0  0  0  0  0  0  0
   23.2353   14.5744    8.7302 H   0  0  0  0  0  0  0  0  0  0  0  0
   22.5074   15.0557   11.0795 H   0  0  0  0  0  0  0  0  0  0  0  0
   26.4986   17.4211    9.1243 H   0  0  0  0  0  0  0  0  0  0  0  0
   26.7956   17.7334   12.1649 H   0  0  0  0  0  0  0  0  0  0  0  0
   25.9178   19.0988   11.5134 H   0  0  0  0  0  0  0  0  0  0  0  0
   24.2692   18.2814   14.9080 H   0  0  0  0  0  0  0  0  0  0  0  0
   26.1531   16.7634   15.0798 H   0  0  0  0  0  0  0  0  0  0  0  0
   27.2483   18.0039   14.3823 H   0  0  0  0  0  0  0  0  0  0  0  0
   25.6367   18.2335   16.9724 H   0  0  0  0  0  0  0  0  0  0  0  0
   27.4271   18.0249   16.8146 H   0  0  0  0  0  0  0  0  0  0  0  0
   26.2959   21.5944   15.1214 H   0  0  0  0  0  0  0  0  0  0  0  0
   23.3945   15.0079    6.7510 H   0  0  0  0  0  0  0  0  0  0  0  0
   23.9770   11.2497    3.1463 H   0  0  0  0  0  0  0  0  0  0  0  0
  1  2  1  0
  2  3  1  0
  3  4  2  0
  4  5  1  0
  5  6  1  0
  6  7  2  0
  6  8  2  0
  6  9  1  0
  9 10  1  0
 10 11  2  0
 11 12  1  0
 12 13  2  0
 13 14  1  0
 14 15  2  0
 15 16  1  0
 16 17  2  0
 17 18  1  0
 18 19  2  0
 18 20  1  0
 20 21  1  0
 21 22  1  0
 22 23  1  0
 23 24  1  0
 24 25  1  0
 25 26  2  0
 25 27  1  0
 27 28  1  0
 28 29  2  0
 21 30  1  0
 30 31  2  0
 13 32  1  0
 32 33  2  0
  5 34  1  0
 34 35  2  0
 35  3  1  0
 33 10  1  0
 19 14  1  0
 28 22  1  0
 30 17  1  0
  1 36  1  0
  1 37  1  0
  1 38  1  0
  2 39  1  0
  2 40  1  0
  4 41  1  0
 11 42  1  0
 12 43  1  0
 15 44  1  0
 16 45  1  0
 19 46  1  0
 20 47  1  0
 20 48  1  0
 22 49  1  1
 23 50  1  0
 23 51  1  0
 24 52  1  0
 24 53  1  0
 27 54  1  0
 32 55  1  0
 34 56  1  0
M  END
>  <meeko>  (327) 
{"is_sidechain": [true], "free_energy": -13.07, "intermolecular_energy": 0.0, "internal_energy": -13.07, "cluster_size": 20, "cluster_id": 1, "rank_in_cluster": 1}

>  <_RMSD_MCS_to_ref>  (327) 
0.46994668728366246

$$$$
ligand
     RDKit          3D

 57 61  0  0  0  0  0  0  0  0999 V2000
   24.8540    9.4020    7.6050 C   0  0  0  0  0  0  0  0  0  0  0  0
   25.5230   10.7550    7.4270 C   0  0  0  0  0  0  0  0  0  0  0  0
   25.2100   11.3680    6.1080 C   0  0  0  0  0  0  0  0  0  0  0  0
   24.3690   12.4230    5.8160 C   0  0  0  0  0  0  0  0  0  0  0  0
   24.4390   12.5440    4.4580 N   0  0  0  0  0  0  0  0  0  0  0  0
   23.7800   13.7910    3.5460 S   0  0  0  0  0  6  0  0  0  0  0  0
   22.3420   13.6260    3.6390 O   0  0  0  0  0  0  0  0  0  0  0  0
   24.4830   13.7750    2.2770 O   0  0  0  0  0  0  0  0  0  0  0  0
   24.2480   15.2490    4.4340 C   0  0  0  0  0  0  0  0  0  0  0  0
   24.0560   16.5050    3.8580 C   0  0  0  0  0  0  0  0  0  0  0  0
   24.4320   17.6400    4.5700 C   0  0  0  0  0  0  0  0  0  0  0  0
   25.0010   17.5120    5.8410 C   0  0  0  0  0  0  0  0  0  0  0  0
   25.2070   16.2530    6.4260 C   0  0  0  0  0  0  0  0  0  0  0  0
   25.8250   16.1820    7.6860 N   0  0  0  0  0  0  0  0  0  0  0  0
   25.3290   16.3600    8.9910 C   0  0  0  0  0  0  0  0  0  0  0  0
   24.1240   15.7600    9.4360 C   0  0  0  0  0  0  0  0  0  0  0  0
   23.6190   15.9790   10.7250 C   0  0  0  0  0  0  0  0  0  0  0  0
   24.3400   16.8150   11.5490 C   0  0  0  0  0  0  0  0  0  0  0  0
   25.5130   17.4090   11.1300 C   0  0  0  0  0  0  0  0  0  0  0  0
   26.0310   17.2060    9.8650 C   0  0  0  0  0  0  0  0  0  0  0  0
   26.0170   18.2150   12.2380 C   0  0  0  0  0  0  0  0  0  0  0  0
   27.0540   18.8500   12.2060 O   0  0  0  0  0  0  0  0  0  0  0  0
   25.1080   18.1000   13.2550 N   0  0  0  0  0  0  0  0  0  0  0  0
   25.3420   18.6450   14.5840 C   0  0  1  0  0  0  0  0  0  0  0  0
   26.4430   17.9370   15.3690 C   0  0  0  0  0  0  0  0  0  0  0  0
   26.5620   18.5730   16.7470 C   0  0  0  0  0  0  0  0  0  0  0  0
   26.8180   20.0590   16.6450 C   0  0  0  0  0  0  0  0  0  0  0  0
   27.4190   20.6810   17.5170 O   0  0  0  0  0  0  0  0  0  0  0  0
   26.2910   20.7010   15.5520 N   0  0  0  0  0  0  0  0  0  0  0  0
   25.6520   20.1400   14.4690 C   0  0  0  0  0  0  0  0  0  0  0  0
   25.3120   20.8390   13.5160 O   0  0  0  0  0  0  0  0  0  0  0  0
   24.1000   17.2350   12.9270 C   0  0  0  0  0  0  0  0  0  0  0  0
   23.1750   16.8380   13.6110 O   0  0  0  0  0  0  0  0  0  0  0  0
   24.8300   15.1190    5.7010 C   0  0  0  0  0  0  0  0  0  0  0  0
   25.3230   11.6330    3.9760 C   0  0  0  0  0  0  0  0  0  0  0  0
   25.8020   10.8930    4.9530 N   0  0  0  0  0  0  0  0  0  0  0  0
   24.7464    9.1845    8.6779 H   0  0  0  0  0  0  0  0  0  0  0  0
   23.8606    9.4192    7.1330 H   0  0  0  0  0  0  0  0  0  0  0  0
   25.4708    8.6230    7.1330 H   0  0  0  0  0  0  0  0  0  0  0  0
   25.1746   11.4298    8.2228 H   0  0  0  0  0  0  0  0  0  0  0  0
   26.6112   10.6029    7.4788 H   0  0  0  0  0  0  0  0  0  0  0  0
   23.7770   13.0286    6.5180 H   0  0  0  0  0  0  0  0  0  0  0  0
   23.6136   16.5969    2.8551 H   0  0  0  0  0  0  0  0  0  0  0  0
   24.2816   18.6382    4.1329 H   0  0  0  0  0  0  0  0  0  0  0  0
   25.2932   18.4170    6.3938 H   0  0  0  0  0  0  0  0  0  0  0  0
   26.8295   15.9576    7.6472 H   0  0  0  0  0  0  0  0  0  0  0  0
   23.5692   15.1034    8.7496 H   0  0  0  0  0  0  0  0  0  0  0  0
   22.6868   15.5036   11.0642 H   0  0  0  0  0  0  0  0  0  0  0  0
   26.9662   17.6930    9.5517 H   0  0  0  0  0  0  0  0  0  0  0  0
   24.4185   18.4779   15.1577 H   0  0  0  0  0  0  0  0  0  0  0  0
   26.1919   16.8714   15.4759 H   0  0  0  0  0  0  0  0  0  0  0  0
   27.3991   18.0326   14.8336 H   0  0  0  0  0  0  0  0  0  0  0  0
   25.6257   18.4077   17.3001 H   0  0  0  0  0  0  0  0  0  0  0  0
   27.4105   18.1094   17.2715 H   0  0  0  0  0  0  0  0  0  0  0  0
   26.3850   21.7266   15.5407 H   0  0  0  0  0  0  0  0  0  0  0  0
   24.9915   14.1183    6.1283 H   0  0  0  0  0  0  0  0  0  0  0  0
   25.6001   11.5282    2.9166 H   0  0  0  0  0  0  0  0  0  0  0  0
  1  2  1  0
  2  3  1  0
  3  4  2  0
  4  5  1  0
  5  6  1  0
  6  7  2  0
  6  8  2  0
  6  9  1  0
  9 10  2  0
 10 11  1  0
 11 12  2  0
 12 13  1  0
 13 14  1  0
 14 15  1  0
 15 16  2  0
 16 17  1  0
 17 18  2  0
 18 19  1  0
 19 20  2  0
 19 21  1  0
 21 22  2  0
 21 23  1  0
 23 24  1  0
 24 25  1  0
 25 26  1  0
 26 27  1  0
 27 28  2  0
 27 29  1  0
 29 30  1  0
 30 31  2  0
 23 32  1  0
 32 33  2  0
 13 34  2  0
  5 35  1  0
 35 36  2  0
 36  3  1  0
 34  9  1  0
 20 15  1  0
 30 24  1  0
 32 18  1  0
  1 37  1  0
  1 38  1  0
  1 39  1  0
  2 40  1  0
  2 41  1  0
  4 42  1  0
 10 43  1  0
 11 44  1  0
 12 45  1  0
 14 46  1  0
 16 47  1  0
 17 48  1  0
 20 49  1  0
 24 50  1  1
 25 51  1  0
 25 52  1  0
 26 53  1  0
 26 54  1  0
 29 55  1  0
 34 56  1  0
 35 57  1  0
M  END
>  <meeko>  (328) 
{"is_sidechain": [true], "free_energy": -13.06, "intermolecular_energy": 0.0, "internal_energy": -13.06, "cluster_size": 16, "cluster_id": 1, "rank_in_cluster": 1}

>  <_RMSD_MCS_to_ref>  (328) 
0.5185287948717128

$$$$
ligand
     RDKit          3D

 59 64  0  0  0  0  0  0  0  0999 V2000
   24.8540    9.4020    7.6050 C   0  0  0  0  0  0  0  0  0  0  0  0
   25.5230   10.7550    7.4270 C   0  0  0  0  0  0  0  0  0  0  0  0
   25.0730   11.4490    6.1900 C   0  0  0  0  0  0  0  0  0  0  0  0
   25.4290   12.6990    5.7200 C   0  0  0  0  0  0  0  0  0  0  0  0
   24.7420   12.8190    4.5490 N   0  0  0  0  0  0  0  0  0  0  0  0
   24.7430   14.1390    3.5030 S   0  0  0  0  0  6  0  0  0  0  0  0
   26.1150   14.2160    3.0390 O   0  0  0  0  0  0  0  0  0  0  0  0
   23.6530   13.9140    2.5700 O   0  0  0  0  0  0  0  0  0  0  0  0
   24.4400   15.4920    4.3500 O   0  0  0  0  0  0  0  0  0  0  0  0
   25.2070   15.9270    5.3580 C   0  0  0  0  0  0  0  0  0  0  0  0
   26.5050   16.4110    4.8330 C   0  0  0  0  0  0  0  0  0  0  0  0
   27.3420   16.8780    5.7720 C   0  0  0  0  0  0  0  0  0  0  0  0
   26.9730   16.8780    7.1160 N   0  0  0  0  0  0  0  0  0  0  0  0
   27.7000   17.3050    8.1730 N   0  0  0  0  0  0  0  0  0  0  0  0
   26.9180   17.0720    9.2280 C   0  0  0  0  0  0  0  0  0  0  0  0
   25.6690   16.5190    8.8820 C   0  0  0  0  0  0  0  0  0  0  0  0
   24.5750   16.0850    9.7250 C   0  0  0  0  0  0  0  0  0  0  0  0
   23.6320   15.1690    9.2200 C   0  0  0  0  0  0  0  0  0  0  0  0
   22.5540   14.7160   10.0040 C   0  0  0  0  0  0  0  0  0  0  0  0
   22.3940   15.1690   11.3120 C   0  0  0  0  0  0  0  0  0  0  0  0
   23.3290   16.0670   11.7900 C   0  0  0  0  0  0  0  0  0  0  0  0
   24.4100   16.5250   11.0320 C   0  0  0  0  0  0  0  0  0  0  0  0
   25.2460   17.4350   11.8700 C   0  0  0  0  0  0  0  0  0  0  0  0
   24.4620   17.5690   13.0890 N   0  0  0  0  0  0  0  0  0  0  0  0
   24.9850   18.2860   14.2450 C   0  0  1  0  0  0  0  0  0  0  0  0
   26.2090   17.6230   14.8750 C   0  0  0  0  0  0  0  0  0  0  0  0
   26.6340   18.4140   16.1010 C   0  0  0  0  0  0  0  0  0  0  0  0
   26.9110   19.8570   15.7540 C   0  0  0  0  0  0  0  0  0  0  0  0
   27.6470   20.5660   16.4340 O   0  0  0  0  0  0  0  0  0  0  0  0
   26.2320   20.3740   14.6770 N   0  0  0  0  0  0  0  0  0  0  0  0
   25.2810   19.7530   13.9000 C   0  0  0  0  0  0  0  0  0  0  0  0
   24.6530   20.3930   13.0570 O   0  0  0  0  0  0  0  0  0  0  0  0
   23.3860   16.7020   13.1110 C   0  0  0  0  0  0  0  0  0  0  0  0
   22.6110   16.4790   14.0190 O   0  0  0  0  0  0  0  0  0  0  0  0
   25.7170   16.3890    7.5070 C   0  0  0  0  0  0  0  0  0  0  0  0
   24.8220   15.8970    6.5910 N   0  0  0  0  0  0  0  0  0  0  0  0
   23.9760   11.7160    4.3600 C   0  0  0  0  0  0  0  0  0  0  0  0
   24.1700   10.8490    5.3310 N   0  0  0  0  0  0  0  0  0  0  0  0
   24.7464    9.1845    8.6779 H   0  0  0  0  0  0  0  0  0  0  0  0
   23.8606    9.4192    7.1330 H   0  0  0  0  0  0  0  0  0  0  0  0
   25.4708    8.6230    7.1330 H   0  0  0  0  0  0  0  0  0  0  0  0
   25.2810   11.3862    8.2947 H   0  0  0  0  0  0  0  0  0  0  0  0
   26.6067   10.5862    7.3429 H   0  0  0  0  0  0  0  0  0  0  0  0
   26.1094   13.4283    6.1838 H   0  0  0  0  0  0  0  0  0  0  0  0
   26.7611   16.3894    3.7634 H   0  0  0  0  0  0  0  0  0  0  0  0
   28.3290   17.2646    5.4782 H   0  0  0  0  0  0  0  0  0  0  0  0
   27.2178   17.2896   10.2637 H   0  0  0  0  0  0  0  0  0  0  0  0
   23.7402   14.7991    8.1897 H   0  0  0  0  0  0  0  0  0  0  0  0
   21.8336   14.0001    9.5815 H   0  0  0  0  0  0  0  0  0  0  0  0
   21.5575   14.8257   11.9384 H   0  0  0  0  0  0  0  0  0  0  0  0
   26.2291   16.9880   12.0792 H   0  0  0  0  0  0  0  0  0  0  0  0
   25.4596   18.3982   11.3836 H   0  0  0  0  0  0  0  0  0  0  0  0
   24.1894   18.2493   15.0037 H   0  0  0  0  0  0  0  0  0  0  0  0
   25.9578   16.5937   15.1708 H   0  0  0  0  0  0  0  0  0  0  0  0
   27.0327   17.6024   14.1462 H   0  0  0  0  0  0  0  0  0  0  0  0
   25.8295   18.3737   16.8501 H   0  0  0  0  0  0  0  0  0  0  0  0
   27.5582   17.9689   16.4981 H   0  0  0  0  0  0  0  0  0  0  0  0
   26.4629   21.3443   14.4200 H   0  0  0  0  0  0  0  0  0  0  0  0
   23.2890   11.5669    3.5140 H   0  0  0  0  0  0  0  0  0  0  0  0
  1  2  1  0
  2  3  1  0
  3  4  2  0
  4  5  1  0
  5  6  1  0
  6  7  2  0
  6  8  2  0
  6  9  1  0
  9 10  1  0
 10 11  1  0
 11 12  2  0
 12 13  1  0
 13 14  1  0
 14 15  2  0
 15 16  1  0
 16 17  1  0
 17 18  2  0
 18 19  1  0
 19 20  2  0
 20 21  1  0
 21 22  2  0
 22 23  1  0
 23 24  1  0
 24 25  1  0
 25 26  1  0
 26 27  1  0
 27 28  1  0
 28 29  2  0
 28 30  1  0
 30 31  1  0
 31 32  2  0
 24 33  1  0
 33 34  2  0
 16 35  2  0
 35 36  1  0
  5 37  1  0
 37 38  2  0
 38  3  1  0
 36 10  2  0
 35 13  1  0
 22 17  1  0
 31 25  1  0
 33 21  1  0
  1 39  1  0
  1 40  1  0
  1 41  1  0
  2 42  1  0
  2 43  1  0
  4 44  1  0
 11 45  1  0
 12 46  1  0
 15 47  1  0
 18 48  1  0
 19 49  1  0
 20 50  1  0
 23 51  1  0
 23 52  1  0
 25 53  1  1
 26 54  1  0
 26 55  1  0
 27 56  1  0
 27 57  1  0
 30 58  1  0
 37 59  1  0
M  END
>  <meeko>  (329) 
{"is_sidechain": [true], "free_energy": -13.06, "intermolecular_energy": 0.0, "internal_energy": -13.06, "cluster_size": 14, "cluster_id": 1, "rank_in_cluster": 1}

>  <_RMSD_MCS_to_ref>  (329) 
0.6976202405320535

$$$$
ligand
     RDKit          3D

 59 63  0  0  0  0  0  0  0  0999 V2000
   24.8540    9.4020    7.6050 C   0  0  0  0  0  0  0  0  0  0  0  0
   25.5230   10.7550    7.4270 C   0  0  0  0  0  0  0  0  0  0  0  0
   25.3620   11.2840    6.0450 C   0  0  0  0  0  0  0  0  0  0  0  0
   24.7640   12.4560    5.6270 C   0  0  0  0  0  0  0  0  0  0  0  0
   24.8880   12.4300    4.2690 N   0  0  0  0  0  0  0  0  0  0  0  0
   24.5600   13.7040    3.2230 S   0  0  0  0  0  6  0  0  0  0  0  0
   25.1500   13.3270    1.9530 O   0  0  0  0  0  0  0  0  0  0  0  0
   23.1500   14.0010    3.3730 O   0  0  0  0  0  0  0  0  0  0  0  0
   25.4830   15.0560    3.8940 C   0  0  0  0  0  0  0  0  0  0  0  0
   26.4470   15.6920    3.1140 C   0  0  0  0  0  0  0  0  0  0  0  0
   27.1350   16.7500    3.6800 C   0  0  0  0  0  0  0  0  0  0  0  0
   26.9210   17.1950    4.9370 N   0  0  0  0  0  0  0  0  0  0  0  0
   25.9580   16.5570    5.6640 C   0  0  0  0  0  0  0  0  0  0  0  0
   25.7340   17.0690    7.0560 C   0  0  0  0  0  0  0  0  0  0  0  0
   26.0950   18.2020    7.3490 O   0  0  0  0  0  0  0  0  0  0  0  0
   25.1070   16.1480    7.8730 N   0  0  0  0  0  0  0  0  0  0  0  0
   24.7490   16.2800    9.2270 C   0  0  0  0  0  0  0  0  0  0  0  0
   23.6190   15.6600    9.7970 C   0  0  0  0  0  0  0  0  0  0  0  0
   23.3000   15.8270   11.1540 C   0  0  0  0  0  0  0  0  0  0  0  0
   24.1270   16.6150   11.9280 C   0  0  0  0  0  0  0  0  0  0  0  0
   25.2420   17.2220   11.3580 C   0  0  0  0  0  0  0  0  0  0  0  0
   25.5750   17.0790   10.0230 C   0  0  0  0  0  0  0  0  0  0  0  0
   25.9260   17.9920   12.4000 C   0  0  0  0  0  0  0  0  0  0  0  0
   26.8920   18.7040   12.2090 O   0  0  0  0  0  0  0  0  0  0  0  0
   25.2470   17.7530   13.5870 N   0  0  0  0  0  0  0  0  0  0  0  0
   25.4640   18.4980   14.8220 C   0  0  1  0  0  0  0  0  0  0  0  0
   26.5820   17.9320   15.6960 C   0  0  0  0  0  0  0  0  0  0  0  0
   26.6790   18.7420   16.9780 C   0  0  0  0  0  0  0  0  0  0  0  0
   26.9030   20.2070   16.6850 C   0  0  0  0  0  0  0  0  0  0  0  0
   27.4180   20.9650   17.5020 O   0  0  0  0  0  0  0  0  0  0  0  0
   26.4250   20.6760   15.4880 N   0  0  0  0  0  0  0  0  0  0  0  0
   25.7050   19.9890   14.5370 C   0  0  0  0  0  0  0  0  0  0  0  0
   25.2080   20.5870   13.5840 O   0  0  0  0  0  0  0  0  0  0  0  0
   24.0290   16.9840   13.3690 C   0  0  0  0  0  0  0  0  0  0  0  0
   25.2120   15.4930    5.1880 C   0  0  0  0  0  0  0  0  0  0  0  0
   25.5660   11.3110    3.9040 C   0  0  0  0  0  0  0  0  0  0  0  0
   25.8630   10.5870    4.9620 N   0  0  0  0  0  0  0  0  0  0  0  0
   24.7464    9.1845    8.6779 H   0  0  0  0  0  0  0  0  0  0  0  0
   23.8606    9.4192    7.1330 H   0  0  0  0  0  0  0  0  0  0  0  0
   25.4708    8.6230    7.1330 H   0  0  0  0  0  0  0  0  0  0  0  0
   25.0738   11.4681    8.1339 H   0  0  0  0  0  0  0  0  0  0  0  0
   26.5990   10.6274    7.6167 H   0  0  0  0  0  0  0  0  0  0  0  0
   24.2946   13.2335    6.2476 H   0  0  0  0  0  0  0  0  0  0  0  0
   26.6535   15.3641    2.0845 H   0  0  0  0  0  0  0  0  0  0  0  0
   27.8990   17.2572    3.0725 H   0  0  0  0  0  0  0  0  0  0  0  0
   24.8708   15.2470    7.4332 H   0  0  0  0  0  0  0  0  0  0  0  0
   22.9734   15.0321    9.1654 H   0  0  0  0  0  0  0  0  0  0  0  0
   22.4136   15.3421   11.5890 H   0  0  0  0  0  0  0  0  0  0  0  0
   26.4604   17.5775    9.6017 H   0  0  0  0  0  0  0  0  0  0  0  0
   24.5347   18.3864   15.3999 H   0  0  0  0  0  0  0  0  0  0  0  0
   26.3610   16.8826   15.9407 H   0  0  0  0  0  0  0  0  0  0  0  0
   27.5370   17.9875   15.1529 H   0  0  0  0  0  0  0  0  0  0  0  0
   25.7433   18.6288   17.5452 H   0  0  0  0  0  0  0  0  0  0  0  0
   27.5343   18.3693   17.5607 H   0  0  0  0  0  0  0  0  0  0  0  0
   26.6298   21.6626   15.2747 H   0  0  0  0  0  0  0  0  0  0  0  0
   24.0061   16.0882   14.0070 H   0  0  0  0  0  0  0  0  0  0  0  0
   23.1123   17.5397   13.6156 H   0  0  0  0  0  0  0  0  0  0  0  0
   24.4383   15.0132    5.8053 H   0  0  0  0  0  0  0  0  0  0  0  0
   25.8298   11.0470    2.8692 H   0  0  0  0  0  0  0  0  0  0  0  0
  1  2  1  0
  2  3  1  0
  3  4  2  0
  4  5  1  0
  5  6  1  0
  6  7  2  0
  6  8  2  0
  6  9  1  0
  9 10  2  0
 10 11  1  0
 11 12  2  0
 12 13  1  0
 13 14  1  0
 14 15  2  0
 14 16  1  0
 16 17  1  0
 17 18  2  0
 18 19  1  0
 19 20  2  0
 20 21  1  0
 21 22  2  0
 21 23  1  0
 23 24  2  0
 23 25  1  0
 25 26  1  0
 26 27  1  0
 27 28  1  0
 28 29  1  0
 29 30  2  0
 29 31  1  0
 31 32  1  0
 32 33  2  0
 25 34  1  0
 13 35  2  0
  5 36  1  0
 36 37  2  0
 37  3  1  0
 35  9  1  0
 22 17  1  0
 32 26  1  0
 34 20  1  0
  1 38  1  0
  1 39  1  0
  1 40  1  0
  2 41  1  0
  2 42  1  0
  4 43  1  0
 10 44  1  0
 11 45  1  0
 16 46  1  0
 18 47  1  0
 19 48  1  0
 22 49  1  0
 26 50  1  1
 27 51  1  0
 27 52  1  0
 28 53  1  0
 28 54  1  0
 31 55  1  0
 34 56  1  0
 34 57  1  0
 35 58  1  0
 36 59  1  0
M  END
>  <meeko>  (330) 
{"is_sidechain": [true], "free_energy": -13.05, "intermolecular_energy": 0.0, "internal_energy": -13.05, "cluster_size": 20, "cluster_id": 1, "rank_in_cluster": 1}

>  <_RMSD_MCS_to_ref>  (330) 
0.5794324809673671

$$$$
ligand
     RDKit          3D

 60 65  0  0  0  0  0  0  0  0999 V2000
   24.8540    9.4020    7.6050 C   0  0  0  0  0  0  0  0  0  0  0  0
   25.5230   10.7550    7.4270 C   0  0  0  0  0  0  0  0  0  0  0  0
   24.8580   11.5770    6.3790 C   0  0  0  0  0  0  0  0  0  0  0  0
   25.4290   12.4000    5.4280 C   0  0  0  0  0  0  0  0  0  0  0  0
   24.3650   12.8820    4.7210 N   0  0  0  0  0  0  0  0  0  0  0  0
   24.4220   14.1060    3.5700 S   0  0  0  0  0  6  0  0  0  0  0  0
   25.3520   13.6530    2.5540 O   0  0  0  0  0  0  0  0  0  0  0  0
   23.0420   14.4330    3.2710 O   0  0  0  0  0  0  0  0  0  0  0  0
   25.1530   15.4630    4.4430 C   0  0  0  0  0  0  0  0  0  0  0  0
   25.5740   16.5980    3.7390 C   0  0  0  0  0  0  0  0  0  0  0  0
   26.1500   17.6630    4.4300 C   0  0  0  0  0  0  0  0  0  0  0  0
   26.3050   17.5790    5.8170 C   0  0  0  0  0  0  0  0  0  0  0  0
   25.8950   16.4310    6.5290 C   0  0  0  0  0  0  0  0  0  0  0  0
   25.3220   15.3700    5.8300 C   0  0  0  0  0  0  0  0  0  0  0  0
   26.0450   16.3120    7.9350 N   0  0  0  0  0  0  0  0  0  0  0  0
   26.5740   17.2850    8.6320 C   0  0  0  0  0  0  0  0  0  0  0  0
   26.7780   17.3120    9.9980 N   0  0  0  0  0  0  0  0  0  0  0  0
   25.8640   17.2310   11.0600 C   0  0  0  0  0  0  0  0  0  0  0  0
   24.7410   16.4030   10.9100 C   0  0  0  0  0  0  0  0  0  0  0  0
   23.7910   16.2730   11.9260 C   0  0  0  0  0  0  0  0  0  0  0  0
   23.9470   16.9730   13.1190 C   0  0  0  0  0  0  0  0  0  0  0  0
   25.0580   17.8030   13.3100 C   0  0  0  0  0  0  0  0  0  0  0  0
   25.2440   18.6060   14.5860 C   0  0  1  0  0  0  0  0  0  0  0  0
   26.3370   17.9690   15.4530 C   0  0  0  0  0  0  0  0  0  0  0  0
   26.4800   18.7430   16.7530 C   0  0  0  0  0  0  0  0  0  0  0  0
   26.7810   20.1960   16.4890 C   0  0  0  0  0  0  0  0  0  0  0  0
   27.3700   20.9050   17.3000 O   0  0  0  0  0  0  0  0  0  0  0  0
   26.3020   20.7150   15.3120 N   0  0  0  0  0  0  0  0  0  0  0  0
   25.5490   20.0850   14.3470 C   0  0  0  0  0  0  0  0  0  0  0  0
   25.1170   20.7320   13.3950 O   0  0  0  0  0  0  0  0  0  0  0  0
   26.0010   17.9230   12.2690 C   0  0  0  0  0  0  0  0  0  0  0  0
   26.9920   18.4500    7.9530 N   0  0  0  0  0  0  0  0  0  0  0  0
   27.5530   19.5240    8.5610 N   0  0  0  0  0  0  0  0  0  0  0  0
   27.7580   20.3230    7.5060 C   0  0  0  0  0  0  0  0  0  0  0  0
   27.3660   19.8230    6.2900 N   0  0  0  0  0  0  0  0  0  0  0  0
   26.8880   18.6400    6.6060 C   0  0  0  0  0  0  0  0  0  0  0  0
   23.2160   12.4060    5.2640 C   0  0  0  0  0  0  0  0  0  0  0  0
   23.4810   11.5990    6.2700 N   0  0  0  0  0  0  0  0  0  0  0  0
   24.7464    9.1845    8.6779 H   0  0  0  0  0  0  0  0  0  0  0  0
   23.8606    9.4192    7.1330 H   0  0  0  0  0  0  0  0  0  0  0  0
   25.4708    8.6230    7.1330 H   0  0  0  0  0  0  0  0  0  0  0  0
   25.4827   11.2987    8.3824 H   0  0  0  0  0  0  0  0  0  0  0  0
   26.5616   10.5794    7.1102 H   0  0  0  0  0  0  0  0  0  0  0  0
   26.4964   12.6173    5.2752 H   0  0  0  0  0  0  0  0  0  0  0  0
   25.4509   16.6489    2.6471 H   0  0  0  0  0  0  0  0  0  0  0  0
   26.4798   18.5619    3.8885 H   0  0  0  0  0  0  0  0  0  0  0  0
   25.0039   14.4634    6.3656 H   0  0  0  0  0  0  0  0  0  0  0  0
   27.7628   17.4072   10.2842 H   0  0  0  0  0  0  0  0  0  0  0  0
   24.6058   15.8442    9.9722 H   0  0  0  0  0  0  0  0  0  0  0  0
   22.9194   15.6173   11.7832 H   0  0  0  0  0  0  0  0  0  0  0  0
   23.1942   16.8736   13.9149 H   0  0  0  0  0  0  0  0  0  0  0  0
   24.2788   18.5774   15.1128 H   0  0  0  0  0  0  0  0  0  0  0  0
   26.0646   16.9270   15.6766 H   0  0  0  0  0  0  0  0  0  0  0  0
   27.2926   17.9940   14.9087 H   0  0  0  0  0  0  0  0  0  0  0  0
   25.5409   18.6681   17.3209 H   0  0  0  0  0  0  0  0  0  0  0  0
   27.3140   18.3120   17.3263 H   0  0  0  0  0  0  0  0  0  0  0  0
   26.5356   21.7010   15.1274 H   0  0  0  0  0  0  0  0  0  0  0  0
   26.8712   18.5807   12.4112 H   0  0  0  0  0  0  0  0  0  0  0  0
   28.2129   21.3193    7.6081 H   0  0  0  0  0  0  0  0  0  0  0  0
   22.2047   12.6590    4.9128 H   0  0  0  0  0  0  0  0  0  0  0  0
  1  2  1  0
  2  3  1  0
  3  4  2  0
  4  5  1  0
  5  6  1  0
  6  7  2  0
  6  8  2  0
  6  9  1  0
  9 10  2  0
 10 11  1  0
 11 12  2  0
 12 13  1  0
 13 14  2  0
 13 15  1  0
 15 16  2  0
 16 17  1  0
 17 18  1  0
 18 19  2  0
 19 20  1  0
 20 21  2  0
 21 22  1  0
 22 23  1  0
 23 24  1  0
 24 25  1  0
 25 26  1  0
 26 27  2  0
 26 28  1  0
 28 29  1  0
 29 30  2  0
 22 31  2  0
 16 32  1  0
 32 33  1  0
 33 34  2  0
 34 35  1  0
 35 36  2  0
  5 37  1  0
 37 38  2  0
 38  3  1  0
 14  9  1  0
 31 18  1  0
 36 32  1  0
 36 12  1  0
 29 23  1  0
  1 39  1  0
  1 40  1  0
  1 41  1  0
  2 42  1  0
  2 43  1  0
  4 44  1  0
 10 45  1  0
 11 46  1  0
 14 47  1  0
 17 48  1  0
 19 49  1  0
 20 50  1  0
 21 51  1  0
 23 52  1  1
 24 53  1  0
 24 54  1  0
 25 55  1  0
 25 56  1  0
 28 57  1  0
 31 58  1  0
 34 59  1  0
 37 60  1  0
M  END
>  <meeko>  (331) 
{"is_sidechain": [true], "free_energy": -13.05, "intermolecular_energy": 0.0, "internal_energy": -13.05, "cluster_size": 19, "cluster_id": 1, "rank_in_cluster": 1}

>  <_RMSD_MCS_to_ref>  (331) 
0.47682045887314833

$$$$
ligand
     RDKit          3D

 62 67  0  0  0  0  0  0  0  0999 V2000
   24.8540    9.4020    7.6050 C   0  0  0  0  0  0  0  0  0  0  0  0
   25.5230   10.7550    7.4270 C   0  0  0  0  0  0  0  0  0  0  0  0
   27.0020   10.6410    7.3110 C   0  0  0  0  0  0  0  0  0  0  0  0
   27.9740   11.0550    8.2000 C   0  0  0  0  0  0  0  0  0  0  0  0
   29.1480   10.6740    7.6160 N   0  0  0  0  0  0  0  0  0  0  0  0
   30.6870   11.1300    8.1260 S   0  0  0  0  0  6  0  0  0  0  0  0
   31.2070   11.9510    7.0480 O   0  0  0  0  0  0  0  0  0  0  0  0
   31.3290    9.8850    8.5150 O   0  0  0  0  0  0  0  0  0  0  0  0
   30.4590   12.0620    9.4520 O   0  0  0  0  0  0  0  0  0  0  0  0
   30.9550   13.3430    9.4200 C   0  0  0  0  0  0  0  0  0  0  0  0
   32.3160   13.5230    9.2170 C   0  0  0  0  0  0  0  0  0  0  0  0
   32.7830   14.8200    9.1790 C   0  0  0  0  0  0  0  0  0  0  0  0
   31.9930   15.9060    9.3220 N   0  0  0  0  0  0  0  0  0  0  0  0
   30.6730   15.7210    9.5030 C   0  0  0  0  0  0  0  0  0  0  0  0
   29.8520   16.8280    9.6520 C   0  0  0  0  0  0  0  0  0  0  0  0
   28.4710   16.7030    9.8530 C   0  0  0  0  0  0  0  0  0  0  0  0
   27.8680   15.4430    9.9010 C   0  0  0  0  0  0  0  0  0  0  0  0
   26.4260   15.3000   10.1380 C   0  0  0  0  0  0  0  0  0  0  0  0
   25.6350   14.4630    9.3240 C   0  0  0  0  0  0  0  0  0  0  0  0
   24.2510   14.3100    9.5380 C   0  0  0  0  0  0  0  0  0  0  0  0
   23.6150   14.9940   10.5710 C   0  0  0  0  0  0  0  0  0  0  0  0
   24.3970   15.8170   11.3580 C   0  0  0  0  0  0  0  0  0  0  0  0
   25.7710   15.9770   11.1630 C   0  0  0  0  0  0  0  0  0  0  0  0
   26.3090   16.9240   12.1870 C   0  0  0  0  0  0  0  0  0  0  0  0
   25.1140   17.3540   12.8980 N   0  0  0  0  0  0  0  0  0  0  0  0
   25.2100   18.1150   14.1380 C   0  0  1  0  0  0  0  0  0  0  0  0
   26.2150   17.5400   15.1350 C   0  0  0  0  0  0  0  0  0  0  0  0
   26.1870   18.3670   16.4110 C   0  0  0  0  0  0  0  0  0  0  0  0
   26.4690   19.8230   16.1260 C   0  0  0  0  0  0  0  0  0  0  0  0
   26.9250   20.5810   16.9770 O   0  0  0  0  0  0  0  0  0  0  0  0
   26.1180   20.2880   14.8830 N   0  0  0  0  0  0  0  0  0  0  0  0
   25.5170   19.5950   13.8570 C   0  0  0  0  0  0  0  0  0  0  0  0
   25.1740   20.1810   12.8300 O   0  0  0  0  0  0  0  0  0  0  0  0
   23.9920   16.6480   12.4970 C   0  0  0  0  0  0  0  0  0  0  0  0
   22.8760   16.6650   12.9790 O   0  0  0  0  0  0  0  0  0  0  0  0
   28.6890   14.3210    9.7280 C   0  0  0  0  0  0  0  0  0  0  0  0
   30.0870   14.4430    9.5500 C   0  0  0  0  0  0  0  0  0  0  0  0
   28.8830   10.1420    6.3950 C   0  0  0  0  0  0  0  0  0  0  0  0
   27.5840   10.0810    6.1900 N   0  0  0  0  0  0  0  0  0  0  0  0
   24.7464    9.1845    8.6779 H   0  0  0  0  0  0  0  0  0  0  0  0
   23.8606    9.4192    7.1330 H   0  0  0  0  0  0  0  0  0  0  0  0
   25.4708    8.6230    7.1330 H   0  0  0  0  0  0  0  0  0  0  0  0
   25.1315   11.2261    6.5133 H   0  0  0  0  0  0  0  0  0  0  0  0
   25.3003   11.3611    8.3176 H   0  0  0  0  0  0  0  0  0  0  0  0
   27.8344   11.5736    9.1600 H   0  0  0  0  0  0  0  0  0  0  0  0
   32.9944   12.6663    9.0916 H   0  0  0  0  0  0  0  0  0  0  0  0
   33.8603   14.9791    9.0234 H   0  0  0  0  0  0  0  0  0  0  0  0
   30.2973   17.8330    9.6113 H   0  0  0  0  0  0  0  0  0  0  0  0
   27.8548   17.6061    9.9743 H   0  0  0  0  0  0  0  0  0  0  0  0
   26.1121   13.9141    8.4987 H   0  0  0  0  0  0  0  0  0  0  0  0
   23.6680   13.6449    8.8839 H   0  0  0  0  0  0  0  0  0  0  0  0
   22.5357   14.8836   10.7525 H   0  0  0  0  0  0  0  0  0  0  0  0
   27.0106   16.4159   12.8649 H   0  0  0  0  0  0  0  0  0  0  0  0
   26.8757   17.7588   11.7489 H   0  0  0  0  0  0  0  0  0  0  0  0
   24.2213   18.0345   14.6135 H   0  0  0  0  0  0  0  0  0  0  0  0
   25.9480   16.4983   15.3664 H   0  0  0  0  0  0  0  0  0  0  0  0
   27.2245   17.5696   14.6990 H   0  0  0  0  0  0  0  0  0  0  0  0
   25.1932   18.2782   16.8741 H   0  0  0  0  0  0  0  0  0  0  0  0
   26.9665   17.9879   17.0883 H   0  0  0  0  0  0  0  0  0  0  0  0
   26.3308   21.2781   14.6949 H   0  0  0  0  0  0  0  0  0  0  0  0
   28.2347   13.3192    9.7307 H   0  0  0  0  0  0  0  0  0  0  0  0
   29.6471    9.8086    5.6774 H   0  0  0  0  0  0  0  0  0  0  0  0
  1  2  1  0
  2  3  1  0
  3  4  2  0
  4  5  1  0
  5  6  1  0
  6  7  2  0
  6  8  2  0
  6  9  1  0
  9 10  1  0
 10 11  2  0
 11 12  1  0
 12 13  2  0
 13 14  1  0
 14 15  2  0
 15 16  1  0
 16 17  2  0
 17 18  1  0
 18 19  2  0
 19 20  1  0
 20 21  2  0
 21 22  1  0
 22 23  2  0
 23 24  1  0
 24 25  1  0
 25 26  1  0
 26 27  1  0
 27 28  1  0
 28 29  1  0
 29 30  2  0
 29 31  1  0
 31 32  1  0
 32 33  2  0
 25 34  1  0
 34 35  2  0
 17 36  1  0
 36 37  2  0
  5 38  1  0
 38 39  2  0
 39  3  1  0
 37 10  1  0
 37 14  1  0
 23 18  1  0
 32 26  1  0
 34 22  1  0
  1 40  1  0
  1 41  1  0
  1 42  1  0
  2 43  1  0
  2 44  1  0
  4 45  1  0
 11 46  1  0
 12 47  1  0
 15 48  1  0
 16 49  1  0
 19 50  1  0
 20 51  1  0
 21 52  1  0
 24 53  1  0
 24 54  1  0
 26 55  1  1
 27 56  1  0
 27 57  1  0
 28 58  1  0
 28 59  1  0
 31 60  1  0
 36 61  1  0
 38 62  1  0
M  END
>  <meeko>  (332) 
{"is_sidechain": [true], "free_energy": -13.05, "intermolecular_energy": 0.0, "internal_energy": -13.05, "cluster_size": 17, "cluster_id": 1, "rank_in_cluster": 1}

>  <_RMSD_MCS_to_ref>  (332) 
0.7123517389604656

$$$$
ligand
     RDKit          3D

 63 68  0  0  0  0  0  0  0  0999 V2000
   24.8710    9.6160    7.7820 C   0  0  0  0  0  0  0  0  0  0  0  0
   25.4240   10.9650    7.3490 C   0  0  0  0  0  0  0  0  0  0  0  0
   26.8120   11.1830    7.8410 C   0  0  0  0  0  0  0  0  0  0  0  0
   27.2910   12.1850    8.6610 C   0  0  0  0  0  0  0  0  0  0  0  0
   28.6170   11.8870    8.8150 N   0  0  0  0  0  0  0  0  0  0  0  0
   29.6470   12.5440    9.9830 S   0  0  0  0  0  6  0  0  0  0  0  0
   30.9880   12.2160    9.5320 O   0  0  0  0  0  0  0  0  0  0  0  0
   29.1350   12.0340   11.2400 O   0  0  0  0  0  0  0  0  0  0  0  0
   29.4520   14.1720    9.9770 O   0  0  0  0  0  0  0  0  0  0  0  0
   28.2710   14.6930    9.5190 C   0  0  0  0  0  0  0  0  0  0  0  0
   28.1890   15.0440    8.1710 C   0  0  0  0  0  0  0  0  0  0  0  0
   27.0080   15.6050    7.7240 C   0  0  0  0  0  0  0  0  0  0  0  0
   25.9270   15.8010    8.5820 C   0  0  0  0  0  0  0  0  0  0  0  0
   25.9810   15.4340    9.9250 C   0  0  0  0  0  0  0  0  0  0  0  0
   24.8510   15.6350   10.8260 C   0  0  0  0  0  0  0  0  0  0  0  0
   23.6110   15.0110   10.5860 C   0  0  0  0  0  0  0  0  0  0  0  0
   22.5190   15.1790   11.4600 C   0  0  0  0  0  0  0  0  0  0  0  0
   22.6390   15.9760   12.5970 C   0  0  0  0  0  0  0  0  0  0  0  0
   23.8580   16.5860   12.8170 C   0  0  0  0  0  0  0  0  0  0  0  0
   24.9490   16.4330   11.9600 C   0  0  0  0  0  0  0  0  0  0  0  0
   26.1180   17.1990   12.4880 C   0  0  0  0  0  0  0  0  0  0  0  0
   25.5660   17.8570   13.6650 N   0  0  0  0  0  0  0  0  0  0  0  0
   26.3850   18.5190   14.6730 C   0  0  2  0  0  0  0  0  0  0  0  0
   26.1150   17.9950   16.0800 C   0  0  0  0  0  0  0  0  0  0  0  0
   27.0640   18.6680   17.0610 C   0  0  0  0  0  0  0  0  0  0  0  0
   26.9480   20.1730   16.9850 C   0  0  0  0  0  0  0  0  0  0  0  0
   27.0420   20.8900   17.9750 O   0  0  0  0  0  0  0  0  0  0  0  0
   26.7440   20.7100   15.7390 N   0  0  0  0  0  0  0  0  0  0  0  0
   26.1940   20.0460   14.6660 C   0  0  0  0  0  0  0  0  0  0  0  0
   25.5900   20.6690   13.7950 O   0  0  0  0  0  0  0  0  0  0  0  0
   24.2650   17.4550   13.9260 C   0  0  0  0  0  0  0  0  0  0  0  0
   23.5700   17.7430   14.8810 O   0  0  0  0  0  0  0  0  0  0  0  0
   27.1770   14.8580   10.3830 C   0  0  0  0  0  0  0  0  0  0  0  0
   24.8210   16.4630    7.8220 C   0  0  0  0  0  0  0  0  0  0  0  0
   25.2110   16.3780    6.3930 N   0  0  0  0  0  0  0  0  0  0  0  0
   26.6700   16.1280    6.3680 C   0  0  0  0  0  0  0  0  0  0  0  0
   28.8970   10.7450    8.1370 C   0  0  0  0  0  0  0  0  0  0  0  0
   27.8230   10.2990    7.5190 N   0  0  0  0  0  0  0  0  0  0  0  0
   24.8497    9.5640    8.8806 H   0  0  0  0  0  0  0  0  0  0  0  0
   23.8507    9.4948    7.3893 H   0  0  0  0  0  0  0  0  0  0  0  0
   25.5127    8.8135    7.3893 H   0  0  0  0  0  0  0  0  0  0  0  0
   25.4253   11.0120    6.2500 H   0  0  0  0  0  0  0  0  0  0  0  0
   24.7838   11.7487    7.7802 H   0  0  0  0  0  0  0  0  0  0  0  0
   26.7337   13.0298    9.0920 H   0  0  0  0  0  0  0  0  0  0  0  0
   29.0353   14.8798    7.4878 H   0  0  0  0  0  0  0  0  0  0  0  0
   23.4926   14.3773    9.6947 H   0  0  0  0  0  0  0  0  0  0  0  0
   21.5643   14.6773   11.2434 H   0  0  0  0  0  0  0  0  0  0  0  0
   21.7967   16.1135   13.2910 H   0  0  0  0  0  0  0  0  0  0  0  0
   26.9431   16.5248   12.7611 H   0  0  0  0  0  0  0  0  0  0  0  0
   26.5459   17.9005   11.7567 H   0  0  0  0  0  0  0  0  0  0  0  0
   27.4246   18.2845   14.4004 H   0  0  0  0  0  0  0  0  0  0  0  0
   25.0758   18.2195   16.3621 H   0  0  0  0  0  0  0  0  0  0  0  0
   26.2735   16.9067   16.1034 H   0  0  0  0  0  0  0  0  0  0  0  0
   26.8178   18.3398   18.0816 H   0  0  0  0  0  0  0  0  0  0  0  0
   28.0944   18.3835   16.8013 H   0  0  0  0  0  0  0  0  0  0  0  0
   27.0255   21.6902   15.5947 H   0  0  0  0  0  0  0  0  0  0  0  0
   27.2575   14.5324   11.4306 H   0  0  0  0  0  0  0  0  0  0  0  0
   23.8700   15.9371    7.9922 H   0  0  0  0  0  0  0  0  0  0  0  0
   24.6745   17.5051    8.1422 H   0  0  0  0  0  0  0  0  0  0  0  0
   24.7098   15.6046    5.9330 H   0  0  0  0  0  0  0  0  0  0  0  0
   26.9196   15.3850    5.5962 H   0  0  0  0  0  0  0  0  0  0  0  0
   27.2364   17.0403    6.1296 H   0  0  0  0  0  0  0  0  0  0  0  0
   29.8837   10.2596    8.1078 H   0  0  0  0  0  0  0  0  0  0  0  0
  1  2  1  0
  2  3  1  0
  3  4  2  0
  4  5  1  0
  5  6  1  0
  6  7  2  0
  6  8  2  0
  6  9  1  0
  9 10  1  0
 10 11  2  0
 11 12  1  0
 12 13  2  0
 13 14  1  0
 14 15  1  0
 15 16  2  0
 16 17  1  0
 17 18  2  0
 18 19  1  0
 19 20  2  0
 20 21  1  0
 21 22  1  0
 22 23  1  0
 23 24  1  0
 24 25  1  0
 25 26  1  0
 26 27  2  0
 26 28  1  0
 28 29  1  0
 29 30  2  0
 22 31  1  0
 31 32  2  0
 14 33  2  0
 13 34  1  0
 34 35  1  0
 35 36  1  0
  5 37  1  0
 37 38  2  0
 38  3  1  0
 33 10  1  0
 36 12  1  0
 20 15  1  0
 29 23  1  0
 31 19  1  0
  1 39  1  0
  1 40  1  0
  1 41  1  0
  2 42  1  0
  2 43  1  0
  4 44  1  0
 11 45  1  0
 16 46  1  0
 17 47  1  0
 18 48  1  0
 21 49  1  0
 21 50  1  0
 23 51  1  6
 24 52  1  0
 24 53  1  0
 25 54  1  0
 25 55  1  0
 28 56  1  0
 33 57  1  0
 34 58  1  0
 34 59  1  0
 35 60  1  0
 36 61  1  0
 36 62  1  0
 37 63  1  0
M  END
>  <meeko>  (333) 
{"is_sidechain": [true], "free_energy": -13.05, "intermolecular_energy": 0.0, "internal_energy": -13.05, "cluster_size": 17, "cluster_id": 1, "rank_in_cluster": 1}

>  <_RMSD_MCS_to_ref>  (333) 
1.5022255526754666

$$$$
ligand
     RDKit          3D

 55 59  0  0  0  0  0  0  0  0999 V2000
   24.8710    9.6160    7.7820 C   0  0  0  0  0  0  0  0  0  0  0  0
   25.4240   10.9650    7.3490 C   0  0  0  0  0  0  0  0  0  0  0  0
   26.8330   10.8670    6.8810 C   0  0  0  0  0  0  0  0  0  0  0  0
   27.9980   10.9800    7.6130 C   0  0  0  0  0  0  0  0  0  0  0  0
   28.9930   10.8430    6.6860 N   0  0  0  0  0  0  0  0  0  0  0  0
   30.6220   11.2320    6.9180 S   0  0  0  0  0  6  0  0  0  0  0  0
   31.2270   11.0230    5.6160 O   0  0  0  0  0  0  0  0  0  0  0  0
   31.0370   10.4520    8.0700 O   0  0  0  0  0  0  0  0  0  0  0  0
   30.7160   12.8290    7.2740 O   0  0  0  0  0  0  0  0  0  0  0  0
   29.6610   13.4320    7.9070 C   0  0  0  0  0  0  0  0  0  0  0  0
   29.8100   13.7660    9.2440 C   0  0  0  0  0  0  0  0  0  0  0  0
   28.7730   14.4190    9.9150 C   0  0  0  0  0  0  0  0  0  0  0  0
   27.5590   14.7310    9.2490 C   0  0  0  0  0  0  0  0  0  0  0  0
   27.4320   14.3450    7.9140 C   0  0  0  0  0  0  0  0  0  0  0  0
   28.4690   13.6820    7.2280 C   0  0  0  0  0  0  0  0  0  0  0  0
   25.9030   14.7880    7.2750 S   0  0  0  0  0  0  0  0  0  0  0  0
   25.3900   15.5080    8.7440 C   0  0  0  0  0  0  0  0  0  0  0  0
   24.1520   16.1360    8.9870 C   0  0  0  0  0  0  0  0  0  0  0  0
   23.8950   16.6740   10.2520 C   0  0  0  0  0  0  0  0  0  0  0  0
   24.8470   16.5810   11.2650 C   0  0  0  0  0  0  0  0  0  0  0  0
   24.6180   17.1420   12.6270 C   0  0  0  0  0  0  0  0  0  0  0  0
   23.5080   17.0820   13.1440 O   0  0  0  0  0  0  0  0  0  0  0  0
   25.6940   17.7480   13.2360 N   0  0  0  0  0  0  0  0  0  0  0  0
   25.5370   18.4640   14.4940 C   0  0  1  0  0  0  0  0  0  0  0  0
   26.3410   17.8310   15.6260 C   0  0  0  0  0  0  0  0  0  0  0  0
   26.1640   18.6520   16.8940 C   0  0  0  0  0  0  0  0  0  0  0  0
   26.5460   20.0960   16.6710 C   0  0  0  0  0  0  0  0  0  0  0  0
   27.0620   20.7840   17.5470 O   0  0  0  0  0  0  0  0  0  0  0  0
   26.2620   20.6240   15.4380 N   0  0  0  0  0  0  0  0  0  0  0  0
   26.0100   19.9070   14.2940 C   0  0  0  0  0  0  0  0  0  0  0  0
   26.1490   20.4130   13.1800 O   0  0  0  0  0  0  0  0  0  0  0  0
   26.0810   15.9640   11.0060 C   0  0  0  0  0  0  0  0  0  0  0  0
   26.3700   15.4100    9.7320 C   0  0  0  0  0  0  0  0  0  0  0  0
   28.4350   10.6810    5.4580 C   0  0  0  0  0  0  0  0  0  0  0  0
   27.1220   10.6740    5.5440 N   0  0  0  0  0  0  0  0  0  0  0  0
   24.8497    9.5640    8.8806 H   0  0  0  0  0  0  0  0  0  0  0  0
   23.8507    9.4948    7.3893 H   0  0  0  0  0  0  0  0  0  0  0  0
   25.5127    8.8135    7.3893 H   0  0  0  0  0  0  0  0  0  0  0  0
   24.8040   11.3560    6.5288 H   0  0  0  0  0  0  0  0  0  0  0  0
   25.4018   11.6362    8.2202 H   0  0  0  0  0  0  0  0  0  0  0  0
   28.1019   11.1432    8.6959 H   0  0  0  0  0  0  0  0  0  0  0  0
   30.7411   13.5179    9.7747 H   0  0  0  0  0  0  0  0  0  0  0  0
   28.8989   14.6947   10.9724 H   0  0  0  0  0  0  0  0  0  0  0  0
   28.3412   13.3689    6.1813 H   0  0  0  0  0  0  0  0  0  0  0  0
   23.3962   16.2023    8.1905 H   0  0  0  0  0  0  0  0  0  0  0  0
   22.9350   17.1738   10.4485 H   0  0  0  0  0  0  0  0  0  0  0  0
   26.6234   17.6940   12.7953 H   0  0  0  0  0  0  0  0  0  0  0  0
   24.4752   18.4240   14.7785 H   0  0  0  0  0  0  0  0  0  0  0  0
   25.9839   16.8053   15.8004 H   0  0  0  0  0  0  0  0  0  0  0  0
   27.4057   17.8066   15.3505 H   0  0  0  0  0  0  0  0  0  0  0  0
   25.1107   18.6044   17.2075 H   0  0  0  0  0  0  0  0  0  0  0  0
   26.8209   18.2354   17.6717 H   0  0  0  0  0  0  0  0  0  0  0  0
   26.2352   21.6509   15.3629 H   0  0  0  0  0  0  0  0  0  0  0  0
   26.8364   15.9091   11.8038 H   0  0  0  0  0  0  0  0  0  0  0  0
   29.0020   10.5710    4.5219 H   0  0  0  0  0  0  0  0  0  0  0  0
  1  2  1  0
  2  3  1  0
  3  4  2  0
  4  5  1  0
  5  6  1  0
  6  7  2  0
  6  8  2  0
  6  9  1  0
  9 10  1  0
 10 11  2  0
 11 12  1  0
 12 13  2  0
 13 14  1  0
 14 15  2  0
 14 16  1  0
 16 17  1  0
 17 18  2  0
 18 19  1  0
 19 20  2  0
 20 21  1  0
 21 22  2  0
 21 23  1  0
 23 24  1  0
 24 25  1  0
 25 26  1  0
 26 27  1  0
 27 28  2  0
 27 29  1  0
 29 30  1  0
 30 31  2  0
 20 32  1  0
 32 33  2  0
  5 34  1  0
 34 35  2  0
 35  3  1  0
 15 10  1  0
 33 17  1  0
 33 13  1  0
 30 24  1  0
  1 36  1  0
  1 37  1  0
  1 38  1  0
  2 39  1  0
  2 40  1  0
  4 41  1  0
 11 42  1  0
 12 43  1  0
 15 44  1  0
 18 45  1  0
 19 46  1  0
 23 47  1  0
 24 48  1  1
 25 49  1  0
 25 50  1  0
 26 51  1  0
 26 52  1  0
 29 53  1  0
 32 54  1  0
 34 55  1  0
M  END
>  <meeko>  (334) 
{"is_sidechain": [true], "free_energy": -13.02, "intermolecular_energy": 0.0, "internal_energy": -13.02, "cluster_size": 20, "cluster_id": 1, "rank_in_cluster": 1}

>  <_RMSD_MCS_to_ref>  (334) 
0.8839758040932015

$$$$
ligand
     RDKit          3D

 61 66  0  0  0  0  0  0  0  0999 V2000
   24.8710    9.6160    7.7820 C   0  0  0  0  0  0  0  0  0  0  0  0
   25.4240   10.9650    7.3490 C   0  0  0  0  0  0  0  0  0  0  0  0
   26.8000   11.2040    7.8600 C   0  0  0  0  0  0  0  0  0  0  0  0
   27.2400   12.1790    8.7340 C   0  0  0  0  0  0  0  0  0  0  0  0
   28.5780   11.9360    8.8640 N   0  0  0  0  0  0  0  0  0  0  0  0
   29.5960   12.5920   10.0470 S   0  0  0  0  0  6  0  0  0  0  0  0
   30.9400   12.2330    9.6300 O   0  0  0  0  0  0  0  0  0  0  0  0
   29.0430   12.1030   11.2970 O   0  0  0  0  0  0  0  0  0  0  0  0
   29.4390   14.2230   10.0250 O   0  0  0  0  0  0  0  0  0  0  0  0
   28.2890   14.7630    9.5140 C   0  0  0  0  0  0  0  0  0  0  0  0
   27.2200   14.9590   10.3830 C   0  0  0  0  0  0  0  0  0  0  0  0
   25.9830   15.4280    9.9170 C   0  0  0  0  0  0  0  0  0  0  0  0
   24.8370   15.5910   10.8070 C   0  0  0  0  0  0  0  0  0  0  0  0
   23.5570   15.1450   10.4220 C   0  0  0  0  0  0  0  0  0  0  0  0
   22.4330   15.3120   11.2550 C   0  0  0  0  0  0  0  0  0  0  0  0
   22.5610   15.9270   12.4990 C   0  0  0  0  0  0  0  0  0  0  0  0
   23.8250   16.3430   12.8710 C   0  0  0  0  0  0  0  0  0  0  0  0
   24.9480   16.1840   12.0600 C   0  0  0  0  0  0  0  0  0  0  0  0
   26.1490   16.7350   12.7560 C   0  0  0  0  0  0  0  0  0  0  0  0
   25.6170   17.1590   14.0440 N   0  0  0  0  0  0  0  0  0  0  0  0
   26.3930   18.0240   14.9270 C   0  0  2  0  0  0  0  0  0  0  0  0
   26.0270   17.8920   16.4040 C   0  0  0  0  0  0  0  0  0  0  0  0
   26.9370   18.7890   17.2290 C   0  0  0  0  0  0  0  0  0  0  0  0
   26.8560   20.2260   16.7680 C   0  0  0  0  0  0  0  0  0  0  0  0
   27.1390   21.1670   17.5040 O   0  0  0  0  0  0  0  0  0  0  0  0
   26.5260   20.4350   15.4520 N   0  0  0  0  0  0  0  0  0  0  0  0
   26.3000   19.4900   14.4760 C   0  0  0  0  0  0  0  0  0  0  0  0
   26.1380   19.8330   13.3060 O   0  0  0  0  0  0  0  0  0  0  0  0
   24.2390   17.0210   14.1040 C   0  0  0  0  0  0  0  0  0  0  0  0
   23.4780   17.4020   14.9710 O   0  0  0  0  0  0  0  0  0  0  0  0
   25.8920   15.7060    8.5370 C   0  0  0  0  0  0  0  0  0  0  0  0
   24.8190   16.1310    7.7770 N   0  0  0  0  0  0  0  0  0  0  0  0
   25.1950   16.2920    6.4710 C   0  0  0  0  0  0  0  0  0  0  0  0
   26.5210   15.9450    6.3680 C   0  0  0  0  0  0  0  0  0  0  0  0
   26.9710   15.5610    7.6610 C   0  0  0  0  0  0  0  0  0  0  0  0
   28.2000   15.0920    8.1600 C   0  0  0  0  0  0  0  0  0  0  0  0
   28.9070   10.8500    8.1180 C   0  0  0  0  0  0  0  0  0  0  0  0
   27.8490   10.3820    7.4880 N   0  0  0  0  0  0  0  0  0  0  0  0
   24.8497    9.5640    8.8806 H   0  0  0  0  0  0  0  0  0  0  0  0
   23.8507    9.4948    7.3893 H   0  0  0  0  0  0  0  0  0  0  0  0
   25.5127    8.8135    7.3893 H   0  0  0  0  0  0  0  0  0  0  0  0
   25.4439   11.0023    6.2498 H   0  0  0  0  0  0  0  0  0  0  0  0
   24.7708   11.7451    7.7670 H   0  0  0  0  0  0  0  0  0  0  0  0
   26.6477   12.9709    9.2157 H   0  0  0  0  0  0  0  0  0  0  0  0
   27.3473   14.7424   11.4539 H   0  0  0  0  0  0  0  0  0  0  0  0
   23.4321   14.6537    9.4458 H   0  0  0  0  0  0  0  0  0  0  0  0
   21.4477   14.9545   10.9212 H   0  0  0  0  0  0  0  0  0  0  0  0
   21.6922   16.0750   13.1572 H   0  0  0  0  0  0  0  0  0  0  0  0
   26.9215   15.9622   12.8826 H   0  0  0  0  0  0  0  0  0  0  0  0
   26.6363   17.5492   12.1996 H   0  0  0  0  0  0  0  0  0  0  0  0
   27.4343   17.6798   14.8413 H   0  0  0  0  0  0  0  0  0  0  0  0
   24.9800   18.1952   16.5517 H   0  0  0  0  0  0  0  0  0  0  0  0
   26.1521   16.8467   16.7228 H   0  0  0  0  0  0  0  0  0  0  0  0
   26.6333   18.7337   18.2848 H   0  0  0  0  0  0  0  0  0  0  0  0
   27.9732   18.4419   17.1035 H   0  0  0  0  0  0  0  0  0  0  0  0
   26.4365   21.4183   15.1588 H   0  0  0  0  0  0  0  0  0  0  0  0
   23.8710   16.3023    8.1416 H   0  0  0  0  0  0  0  0  0  0  0  0
   24.5504   16.6378    5.6495 H   0  0  0  0  0  0  0  0  0  0  0  0
   27.1259   15.9614    5.4494 H   0  0  0  0  0  0  0  0  0  0  0  0
   29.0720   14.9868    7.4977 H   0  0  0  0  0  0  0  0  0  0  0  0
   29.9173   10.4205    8.0493 H   0  0  0  0  0  0  0  0  0  0  0  0
  1  2  1  0
  2  3  1  0
  3  4  2  0
  4  5  1  0
  5  6  1  0
  6  7  2  0
  6  8  2  0
  6  9  1  0
  9 10  1  0
 10 11  2  0
 11 12  1  0
 12 13  1  0
 13 14  2  0
 14 15  1  0
 15 16  2  0
 16 17  1  0
 17 18  2  0
 18 19  1  0
 19 20  1  0
 20 21  1  0
 21 22  1  0
 22 23  1  0
 23 24  1  0
 24 25  2  0
 24 26  1  0
 26 27  1  0
 27 28  2  0
 20 29  1  0
 29 30  2  0
 12 31  2  0
 31 32  1  0
 32 33  1  0
 33 34  2  0
 34 35  1  0
 35 36  2  0
  5 37  1  0
 37 38  2  0
 38  3  1  0
 36 10  1  0
 18 13  1  0
 27 21  1  0
 35 31  1  0
 29 17  1  0
  1 39  1  0
  1 40  1  0
  1 41  1  0
  2 42  1  0
  2 43  1  0
  4 44  1  0
 11 45  1  0
 14 46  1  0
 15 47  1  0
 16 48  1  0
 19 49  1  0
 19 50  1  0
 21 51  1  1
 22 52  1  0
 22 53  1  0
 23 54  1  0
 23 55  1  0
 26 56  1  0
 32 57  1  0
 33 58  1  0
 34 59  1  0
 36 60  1  0
 37 61  1  0
M  END
>  <meeko>  (335) 
{"is_sidechain": [true], "free_energy": -13.02, "intermolecular_energy": 0.0, "internal_energy": -13.02, "cluster_size": 15, "cluster_id": 1, "rank_in_cluster": 1}

>  <_RMSD_MCS_to_ref>  (335) 
1.49611435614617

$$$$
ligand
     RDKit          3D

 58 63  0  0  0  0  0  0  0  0999 V2000
   24.8540    9.4020    7.6050 C   0  0  0  0  0  0  0  0  0  0  0  0
   25.5230   10.7550    7.4270 C   0  0  0  0  0  0  0  0  0  0  0  0
   25.0090   11.4830    6.2350 C   0  0  0  0  0  0  0  0  0  0  0  0
   25.2290   12.7940    5.8590 C   0  0  0  0  0  0  0  0  0  0  0  0
   24.5360   12.9290    4.6920 N   0  0  0  0  0  0  0  0  0  0  0  0
   24.6010   14.2340    3.6230 S   0  0  0  0  0  6  0  0  0  0  0  0
   24.8530   13.5990    2.3410 O   0  0  0  0  0  0  0  0  0  0  0  0
   23.3690   14.9650    3.8500 O   0  0  0  0  0  0  0  0  0  0  0  0
   25.9590   15.2070    4.0870 C   0  0  0  0  0  0  0  0  0  0  0  0
   26.9290   15.4420    3.1770 C   0  0  0  0  0  0  0  0  0  0  0  0
   28.0910   16.2270    3.5610 C   0  0  0  0  0  0  0  0  0  0  0  0
   28.2270   16.7100    4.8080 C   0  0  0  0  0  0  0  0  0  0  0  0
   27.2140   16.4630    5.7770 C   0  0  0  0  0  0  0  0  0  0  0  0
   27.1450   16.8070    7.0430 N   0  0  0  0  0  0  0  0  0  0  0  0
   25.9470   16.3170    7.4970 C   0  0  0  0  0  0  0  0  0  0  0  0
   25.4900   16.4800    8.8690 C   0  0  0  0  0  0  0  0  0  0  0  0
   24.3430   15.7660    9.3030 C   0  0  0  0  0  0  0  0  0  0  0  0
   23.8480   15.8900   10.6080 C   0  0  0  0  0  0  0  0  0  0  0  0
   24.5190   16.7470   11.4540 C   0  0  0  0  0  0  0  0  0  0  0  0
   25.6330   17.4510   11.0400 C   0  0  0  0  0  0  0  0  0  0  0  0
   26.1460   17.3420    9.7620 C   0  0  0  0  0  0  0  0  0  0  0  0
   26.0880   18.2570   12.1700 C   0  0  0  0  0  0  0  0  0  0  0  0
   27.0620   18.9840   12.1410 O   0  0  0  0  0  0  0  0  0  0  0  0
   25.2110   18.0280   13.1970 N   0  0  0  0  0  0  0  0  0  0  0  0
   25.4230   18.5440   14.5400 C   0  0  1  0  0  0  0  0  0  0  0  0
   26.5700   17.8790   15.2960 C   0  0  0  0  0  0  0  0  0  0  0  0
   26.6630   18.4790   16.6910 C   0  0  0  0  0  0  0  0  0  0  0  0
   26.8340   19.9790   16.6330 C   0  0  0  0  0  0  0  0  0  0  0  0
   27.4050   20.6090   17.5190 O   0  0  0  0  0  0  0  0  0  0  0  0
   26.2630   20.6220   15.5630 N   0  0  0  0  0  0  0  0  0  0  0  0
   25.6460   20.0590   14.4680 C   0  0  0  0  0  0  0  0  0  0  0  0
   25.2580   20.7650   13.5400 O   0  0  0  0  0  0  0  0  0  0  0  0
   24.2710   17.0950   12.8510 C   0  0  0  0  0  0  0  0  0  0  0  0
   23.3920   16.6020   13.5330 O   0  0  0  0  0  0  0  0  0  0  0  0
   25.2690   15.6850    6.4760 C   0  0  0  0  0  0  0  0  0  0  0  0
   26.0930   15.7340    5.3750 N   0  0  0  0  0  0  0  0  0  0  0  0
   23.9270   11.7520    4.3950 C   0  0  0  0  0  0  0  0  0  0  0  0
   24.2050   10.8470    5.3100 N   0  0  0  0  0  0  0  0  0  0  0  0
   24.7464    9.1845    8.6779 H   0  0  0  0  0  0  0  0  0  0  0  0
   23.8606    9.4192    7.1330 H   0  0  0  0  0  0  0  0  0  0  0  0
   25.4708    8.6230    7.1330 H   0  0  0  0  0  0  0  0  0  0  0  0
   25.3341   11.3644    8.3231 H   0  0  0  0  0  0  0  0  0  0  0  0
   26.5995   10.5831    7.2799 H   0  0  0  0  0  0  0  0  0  0  0  0
   25.8267   13.5553    6.3816 H   0  0  0  0  0  0  0  0  0  0  0  0
   26.8407   15.0435    2.1555 H   0  0  0  0  0  0  0  0  0  0  0  0
   28.8746   16.4297    2.8161 H   0  0  0  0  0  0  0  0  0  0  0  0
   29.1186   17.2945    5.0789 H   0  0  0  0  0  0  0  0  0  0  0  0
   23.8290   15.0977    8.5965 H   0  0  0  0  0  0  0  0  0  0  0  0
   22.9633   15.3284   10.9426 H   0  0  0  0  0  0  0  0  0  0  0  0
   27.0365   17.9102    9.4551 H   0  0  0  0  0  0  0  0  0  0  0  0
   24.5155   18.3052   15.1140 H   0  0  0  0  0  0  0  0  0  0  0  0
   26.3827   16.7977   15.3721 H   0  0  0  0  0  0  0  0  0  0  0  0
   27.5144   18.0467   14.7575 H   0  0  0  0  0  0  0  0  0  0  0  0
   25.7415   18.2445   17.2441 H   0  0  0  0  0  0  0  0  0  0  0  0
   27.5403   18.0488   17.1963 H   0  0  0  0  0  0  0  0  0  0  0  0
   26.3006   21.6512   15.5813 H   0  0  0  0  0  0  0  0  0  0  0  0
   24.2682   15.2317    6.5308 H   0  0  0  0  0  0  0  0  0  0  0  0
   23.2911   11.5791    3.5142 H   0  0  0  0  0  0  0  0  0  0  0  0
  1  2  1  0
  2  3  1  0
  3  4  2  0
  4  5  1  0
  5  6  1  0
  6  7  2  0
  6  8  2  0
  6  9  1  0
  9 10  2  0
 10 11  1  0
 11 12  2  0
 12 13  1  0
 13 14  2  0
 14 15  1  0
 15 16  1  0
 16 17  2  0
 17 18  1  0
 18 19  2  0
 19 20  1  0
 20 21  2  0
 20 22  1  0
 22 23  2  0
 22 24  1  0
 24 25  1  0
 25 26  1  0
 26 27  1  0
 27 28  1  0
 28 29  2  0
 28 30  1  0
 30 31  1  0
 31 32  2  0
 24 33  1  0
 33 34  2  0
 15 35  2  0
 35 36  1  0
  5 37  1  0
 37 38  2  0
 38  3  1  0
 36  9  1  0
 36 13  1  0
 21 16  1  0
 31 25  1  0
 33 19  1  0
  1 39  1  0
  1 40  1  0
  1 41  1  0
  2 42  1  0
  2 43  1  0
  4 44  1  0
 10 45  1  0
 11 46  1  0
 12 47  1  0
 17 48  1  0
 18 49  1  0
 21 50  1  0
 25 51  1  1
 26 52  1  0
 26 53  1  0
 27 54  1  0
 27 55  1  0
 30 56  1  0
 35 57  1  0
 37 58  1  0
M  END
>  <meeko>  (336) 
{"is_sidechain": [true], "free_energy": -13.01, "intermolecular_energy": 0.0, "internal_energy": -13.01, "cluster_size": 19, "cluster_id": 1, "rank_in_cluster": 1}

>  <_RMSD_MCS_to_ref>  (336) 
0.5219862705729584

$$$$
ligand
     RDKit          3D

 60 65  0  0  0  0  0  0  0  0999 V2000
   24.8710    9.6160    7.7820 C   0  0  0  0  0  0  0  0  0  0  0  0
   25.4240   10.9650    7.3490 C   0  0  0  0  0  0  0  0  0  0  0  0
   26.5890   11.3860    8.1750 C   0  0  0  0  0  0  0  0  0  0  0  0
   27.6920   12.1300    7.8070 C   0  0  0  0  0  0  0  0  0  0  0  0
   28.4520   12.1860    8.9420 N   0  0  0  0  0  0  0  0  0  0  0  0
   29.7920   13.1790    9.1770 S   0  0  0  0  0  6  0  0  0  0  0  0
   30.4930   13.1700    7.9050 O   0  0  0  0  0  0  0  0  0  0  0  0
   30.4130   12.6920   10.3930 O   0  0  0  0  0  0  0  0  0  0  0  0
   29.2030   14.6770    9.4480 O   0  0  0  0  0  0  0  0  0  0  0  0
   27.8860   15.0240    9.1990 C   0  0  0  0  0  0  0  0  0  0  0  0
   26.9130   15.0800   10.1350 C   0  0  0  0  0  0  0  0  0  0  0  0
   25.5550   15.4980    9.7720 C   0  0  0  0  0  0  0  0  0  0  0  0
   24.4910   15.6480   10.7830 C   0  0  0  0  0  0  0  0  0  0  0  0
   23.2580   14.9850   10.6430 C   0  0  0  0  0  0  0  0  0  0  0  0
   22.2430   15.1130   11.6110 C   0  0  0  0  0  0  0  0  0  0  0  0
   22.4390   15.9050   12.7410 C   0  0  0  0  0  0  0  0  0  0  0  0
   23.6550   16.5490   12.8630 C   0  0  0  0  0  0  0  0  0  0  0  0
   24.6730   16.4340   11.9150 C   0  0  0  0  0  0  0  0  0  0  0  0
   25.8570   17.2350   12.3500 C   0  0  0  0  0  0  0  0  0  0  0  0
   25.3870   17.8710   13.5740 N   0  0  0  0  0  0  0  0  0  0  0  0
   26.2800   18.5190   14.5280 C   0  0  2  0  0  0  0  0  0  0  0  0
   26.0500   18.0400   15.9580 C   0  0  0  0  0  0  0  0  0  0  0  0
   27.0630   18.7000   16.8810 C   0  0  0  0  0  0  0  0  0  0  0  0
   26.9950   20.2060   16.7760 C   0  0  0  0  0  0  0  0  0  0  0  0
   27.1760   20.9400   17.7430 O   0  0  0  0  0  0  0  0  0  0  0  0
   26.7380   20.7230   15.5320 N   0  0  0  0  0  0  0  0  0  0  0  0
   26.1480   20.0520   14.4850 C   0  0  0  0  0  0  0  0  0  0  0  0
   25.5640   20.6750   13.6000 O   0  0  0  0  0  0  0  0  0  0  0  0
   24.1260   17.4240   13.9410 C   0  0  0  0  0  0  0  0  0  0  0  0
   23.5060   17.6830   14.9530 O   0  0  0  0  0  0  0  0  0  0  0  0
   25.2560   15.7900    8.4860 C   0  0  0  0  0  0  0  0  0  0  0  0
   26.2550   15.7000    7.4800 C   0  0  0  0  0  0  0  0  0  0  0  0
   26.1990   15.9300    6.1850 N   0  0  0  0  0  0  0  0  0  0  0  0
   27.4660   15.6970    5.7170 C   0  0  0  0  0  0  0  0  0  0  0  0
   28.3080   15.3250    6.7390 C   0  0  0  0  0  0  0  0  0  0  0  0
   27.5340   15.3240    7.8760 N   0  0  0  0  0  0  0  0  0  0  0  0
   27.7860   11.5730    9.9530 C   0  0  0  0  0  0  0  0  0  0  0  0
   26.6580   11.0550    9.5140 N   0  0  0  0  0  0  0  0  0  0  0  0
   24.8497    9.5640    8.8806 H   0  0  0  0  0  0  0  0  0  0  0  0
   23.8507    9.4948    7.3893 H   0  0  0  0  0  0  0  0  0  0  0  0
   25.5127    8.8135    7.3893 H   0  0  0  0  0  0  0  0  0  0  0  0
   25.7409   10.8972    6.2978 H   0  0  0  0  0  0  0  0  0  0  0  0
   24.6289   11.7138    7.4796 H   0  0  0  0  0  0  0  0  0  0  0  0
   27.9096   12.5758    6.8252 H   0  0  0  0  0  0  0  0  0  0  0  0
   27.1412   14.8101   11.1767 H   0  0  0  0  0  0  0  0  0  0  0  0
   23.0831   14.3537    9.7593 H   0  0  0  0  0  0  0  0  0  0  0  0
   21.2884   14.5839   11.4742 H   0  0  0  0  0  0  0  0  0  0  0  0
   21.6559   16.0131   13.5059 H   0  0  0  0  0  0  0  0  0  0  0  0
   26.7228   16.5860   12.5483 H   0  0  0  0  0  0  0  0  0  0  0  0
   26.1986   17.9535   11.5903 H   0  0  0  0  0  0  0  0  0  0  0  0
   27.2974   18.2341   14.2219 H   0  0  0  0  0  0  0  0  0  0  0  0
   25.0325   18.3106   16.2765 H   0  0  0  0  0  0  0  0  0  0  0  0
   26.1690   16.9474   16.0031 H   0  0  0  0  0  0  0  0  0  0  0  0
   26.8509   18.4023   17.9185 H   0  0  0  0  0  0  0  0  0  0  0  0
   28.0707   18.3743   16.5834 H   0  0  0  0  0  0  0  0  0  0  0  0
   27.0113   21.7021   15.3662 H   0  0  0  0  0  0  0  0  0  0  0  0
   24.2348   16.0986    8.2177 H   0  0  0  0  0  0  0  0  0  0  0  0
   27.7691   15.7945    4.6641 H   0  0  0  0  0  0  0  0  0  0  0  0
   29.3775   15.0795    6.6629 H   0  0  0  0  0  0  0  0  0  0  0  0
   28.1390   11.5168   10.9933 H   0  0  0  0  0  0  0  0  0  0  0  0
  1  2  1  0
  2  3  1  0
  3  4  2  0
  4  5  1  0
  5  6  1  0
  6  7  2  0
  6  8  2  0
  6  9  1  0
  9 10  1  0
 10 11  2  0
 11 12  1  0
 12 13  1  0
 13 14  2  0
 14 15  1  0
 15 16  2  0
 16 17  1  0
 17 18  2  0
 18 19  1  0
 19 20  1  0
 20 21  1  0
 21 22  1  0
 22 23  1  0
 23 24  1  0
 24 25  2  0
 24 26  1  0
 26 27  1  0
 27 28  2  0
 20 29  1  0
 29 30  2  0
 12 31  2  0
 31 32  1  0
 32 33  2  0
 33 34  1  0
 34 35  2  0
 35 36  1  0
  5 37  1  0
 37 38  2  0
 38  3  1  0
 36 10  1  0
 18 13  1  0
 27 21  1  0
 36 32  1  0
 29 17  1  0
  1 39  1  0
  1 40  1  0
  1 41  1  0
  2 42  1  0
  2 43  1  0
  4 44  1  0
 11 45  1  0
 14 46  1  0
 15 47  1  0
 16 48  1  0
 19 49  1  0
 19 50  1  0
 21 51  1  6
 22 52  1  0
 22 53  1  0
 23 54  1  0
 23 55  1  0
 26 56  1  0
 31 57  1  0
 34 58  1  0
 35 59  1  0
 37 60  1  0
M  END
>  <meeko>  (337) 
{"is_sidechain": [true], "free_energy": -13.01, "intermolecular_energy": 0.0, "internal_energy": -13.01, "cluster_size": 12, "cluster_id": 1, "rank_in_cluster": 1}

>  <_RMSD_MCS_to_ref>  (337) 
1.5537915096806123

$$$$
ligand
     RDKit          3D

 62 67  0  0  0  0  0  0  0  0999 V2000
   24.8710    9.6160    7.7820 C   0  0  0  0  0  0  0  0  0  0  0  0
   25.4240   10.9650    7.3490 C   0  0  0  0  0  0  0  0  0  0  0  0
   26.5910   10.8270    6.4360 C   0  0  0  0  0  0  0  0  0  0  0  0
   27.9380   10.8430    6.7390 C   0  0  0  0  0  0  0  0  0  0  0  0
   28.5560   10.6440    5.5370 N   0  0  0  0  0  0  0  0  0  0  0  0
   30.2050   10.8160    5.2370 S   0  0  0  0  0  6  0  0  0  0  0  0
   30.8480   10.4570    6.4870 O   0  0  0  0  0  0  0  0  0  0  0  0
   30.4410   10.0670    4.0180 O   0  0  0  0  0  0  0  0  0  0  0  0
   30.4470   12.4010    4.9470 O   0  0  0  0  0  0  0  0  0  0  0  0
   29.4220   13.3060    4.9620 C   0  0  0  0  0  0  0  0  0  0  0  0
   28.8700   13.9480    3.8660 C   0  0  0  0  0  0  0  0  0  0  0  0
   27.8510   14.8400    3.9480 N   0  0  0  0  0  0  0  0  0  0  0  0
   27.3470   15.1210    5.1620 C   0  0  0  0  0  0  0  0  0  0  0  0
   26.3070   16.0290    5.2780 C   0  0  0  0  0  0  0  0  0  0  0  0
   25.7480   16.3540    6.5210 C   0  0  0  0  0  0  0  0  0  0  0  0
   26.2230   15.7660    7.7000 C   0  0  0  0  0  0  0  0  0  0  0  0
   25.6390   16.1010    9.0100 C   0  0  0  0  0  0  0  0  0  0  0  0
   24.3200   15.6940    9.3410 C   0  0  0  0  0  0  0  0  0  0  0  0
   23.7340   15.9990   10.5780 C   0  0  0  0  0  0  0  0  0  0  0  0
   24.4820   16.7150   11.4930 C   0  0  0  0  0  0  0  0  0  0  0  0
   25.7760   17.1140   11.1740 C   0  0  0  0  0  0  0  0  0  0  0  0
   26.3750   16.8300    9.9590 C   0  0  0  0  0  0  0  0  0  0  0  0
   26.3230   17.8490   12.3190 C   0  0  0  0  0  0  0  0  0  0  0  0
   27.4170   18.3770   12.3530 O   0  0  0  0  0  0  0  0  0  0  0  0
   25.3600   17.8080   13.3180 N   0  0  0  0  0  0  0  0  0  0  0  0
   25.4510   18.6450   14.5090 C   0  0  2  0  0  0  0  0  0  0  0  0
   26.2220   19.9370   14.2560 C   0  0  0  0  0  0  0  0  0  0  0  0
   26.1960   20.7940   15.5120 C   0  0  0  0  0  0  0  0  0  0  0  0
   26.7380   20.0370   16.7010 C   0  0  0  0  0  0  0  0  0  0  0  0
   27.4010   20.5800   17.5800 O   0  0  0  0  0  0  0  0  0  0  0  0
   26.4400   18.6990   16.7630 N   0  0  0  0  0  0  0  0  0  0  0  0
   26.0940   17.9040   15.6930 C   0  0  0  0  0  0  0  0  0  0  0  0
   26.3130   16.6960   15.7240 O   0  0  0  0  0  0  0  0  0  0  0  0
   24.1210   17.1930   12.8600 C   0  0  0  0  0  0  0  0  0  0  0  0
   27.2790   14.8470    7.5880 C   0  0  0  0  0  0  0  0  0  0  0  0
   27.8390   14.5220    6.3370 C   0  0  0  0  0  0  0  0  0  0  0  0
   28.8930   13.6040    6.2150 C   0  0  0  0  0  0  0  0  0  0  0  0
   27.6160   10.5970    4.5590 C   0  0  0  0  0  0  0  0  0  0  0  0
   26.4070   10.6800    5.0750 N   0  0  0  0  0  0  0  0  0  0  0  0
   24.8497    9.5640    8.8806 H   0  0  0  0  0  0  0  0  0  0  0  0
   23.8507    9.4948    7.3893 H   0  0  0  0  0  0  0  0  0  0  0  0
   25.5127    8.8135    7.3893 H   0  0  0  0  0  0  0  0  0  0  0  0
   24.6312   11.5225    6.8288 H   0  0  0  0  0  0  0  0  0  0  0  0
   25.7616   11.4969    8.2507 H   0  0  0  0  0  0  0  0  0  0  0  0
   28.4068   10.9839    7.7241 H   0  0  0  0  0  0  0  0  0  0  0  0
   29.2816   13.7216    2.8714 H   0  0  0  0  0  0  0  0  0  0  0  0
   25.9098   16.5073    4.3705 H   0  0  0  0  0  0  0  0  0  0  0  0
   24.9243   17.0813    6.5716 H   0  0  0  0  0  0  0  0  0  0  0  0
   23.7389   15.1210    8.6035 H   0  0  0  0  0  0  0  0  0  0  0  0
   22.7086   15.6776   10.8131 H   0  0  0  0  0  0  0  0  0  0  0  0
   27.3997   17.1660    9.7423 H   0  0  0  0  0  0  0  0  0  0  0  0
   24.4115   18.8972   14.7654 H   0  0  0  0  0  0  0  0  0  0  0  0
   27.2638   19.6980   13.9961 H   0  0  0  0  0  0  0  0  0  0  0  0
   25.7553   20.4872   13.4257 H   0  0  0  0  0  0  0  0  0  0  0  0
   26.8109   21.6910   15.3471 H   0  0  0  0  0  0  0  0  0  0  0  0
   25.1527   21.0722   15.7223 H   0  0  0  0  0  0  0  0  0  0  0  0
   26.4784   18.2507   17.6895 H   0  0  0  0  0  0  0  0  0  0  0  0
   23.8297   16.3547   13.5099 H   0  0  0  0  0  0  0  0  0  0  0  0
   23.2613   17.8791   12.8712 H   0  0  0  0  0  0  0  0  0  0  0  0
   27.6772   14.3710    8.4962 H   0  0  0  0  0  0  0  0  0  0  0  0
   29.3029   13.1179    7.1126 H   0  0  0  0  0  0  0  0  0  0  0  0
   27.8336   10.5027    3.4849 H   0  0  0  0  0  0  0  0  0  0  0  0
  1  2  1  0
  2  3  1  0
  3  4  2  0
  4  5  1  0
  5  6  1  0
  6  7  2  0
  6  8  2  0
  6  9  1  0
  9 10  1  0
 10 11  2  0
 11 12  1  0
 12 13  2  0
 13 14  1  0
 14 15  2  0
 15 16  1  0
 16 17  1  0
 17 18  2  0
 18 19  1  0
 19 20  2  0
 20 21  1  0
 21 22  2  0
 21 23  1  0
 23 24  2  0
 23 25  1  0
 25 26  1  0
 26 27  1  0
 27 28  1  0
 28 29  1  0
 29 30  2  0
 29 31  1  0
 31 32  1  0
 32 33  2  0
 25 34  1  0
 16 35  2  0
 35 36  1  0
 36 37  2  0
  5 38  1  0
 38 39  2  0
 39  3  1  0
 37 10  1  0
 36 13  1  0
 22 17  1  0
 32 26  1  0
 34 20  1  0
  1 40  1  0
  1 41  1  0
  1 42  1  0
  2 43  1  0
  2 44  1  0
  4 45  1  0
 11 46  1  0
 14 47  1  0
 15 48  1  0
 18 49  1  0
 19 50  1  0
 22 51  1  0
 26 52  1  1
 27 53  1  0
 27 54  1  0
 28 55  1  0
 28 56  1  0
 31 57  1  0
 34 58  1  0
 34 59  1  0
 35 60  1  0
 37 61  1  0
 38 62  1  0
M  END
>  <meeko>  (338) 
{"is_sidechain": [true], "free_energy": -13.01, "intermolecular_energy": 0.0, "internal_energy": -13.01, "cluster_size": 20, "cluster_id": 1, "rank_in_cluster": 1}

>  <_RMSD_MCS_to_ref>  (338) 
1.7100330893484683

$$$$
ligand
     RDKit          3D

 59 63  0  0  0  0  0  0  0  0999 V2000
   24.8540    9.4020    7.6050 C   0  0  0  0  0  0  0  0  0  0  0  0
   25.5230   10.7550    7.4270 C   0  0  0  0  0  0  0  0  0  0  0  0
   24.9720   11.5070    6.2670 C   0  0  0  0  0  0  0  0  0  0  0  0
   25.2390   12.8000    5.8640 C   0  0  0  0  0  0  0  0  0  0  0  0
   24.4460   12.9800    4.7660 N   0  0  0  0  0  0  0  0  0  0  0  0
   24.5010   14.2940    3.7180 S   0  0  0  0  0  6  0  0  0  0  0  0
   25.1200   13.8030    2.5040 O   0  0  0  0  0  0  0  0  0  0  0  0
   23.1660   14.8600    3.7300 O   0  0  0  0  0  0  0  0  0  0  0  0
   25.5980   15.4230    4.5220 C   0  0  0  0  0  0  0  0  0  0  0  0
   26.6700   15.9650    3.7980 C   0  0  0  0  0  0  0  0  0  0  0  0
   27.5580   16.8640    4.4090 C   0  0  0  0  0  0  0  0  0  0  0  0
   27.3920   17.2260    5.7470 C   0  0  0  0  0  0  0  0  0  0  0  0
   26.3400   16.6730    6.4550 C   0  0  0  0  0  0  0  0  0  0  0  0
   25.4500   15.7720    5.8550 C   0  0  0  0  0  0  0  0  0  0  0  0
   24.4600   15.3620    6.8980 C   0  0  0  0  0  0  0  0  0  0  0  0
   24.9830   16.1920    8.0490 C   0  0  0  0  0  0  0  0  0  0  0  0
   24.3000   16.1510    9.3920 C   0  0  0  0  0  0  0  0  0  0  0  0
   23.2060   15.6140    9.4660 O   0  0  0  0  0  0  0  0  0  0  0  0
   25.0510   16.7610   10.3690 N   0  0  0  0  0  0  0  0  0  0  0  0
   24.7410   16.9060   11.7320 C   0  0  0  0  0  0  0  0  0  0  0  0
   23.5260   16.3730   12.1720 C   0  0  0  0  0  0  0  0  0  0  0  0
   23.1530   16.4720   13.5120 C   0  0  0  0  0  0  0  0  0  0  0  0
   23.9910   17.1080   14.4270 C   0  0  0  0  0  0  0  0  0  0  0  0
   25.2090   17.6610   14.0070 C   0  0  0  0  0  0  0  0  0  0  0  0
   26.1590   18.3380   14.9830 C   0  0  2  0  0  0  0  0  0  0  0  0
   25.5870   18.2670   16.4030 C   0  0  0  0  0  0  0  0  0  0  0  0
   26.5690   18.8830   17.3860 C   0  0  0  0  0  0  0  0  0  0  0  0
   26.8960   20.3060   17.0050 C   0  0  0  0  0  0  0  0  0  0  0  0
   27.2530   21.1410   17.8300 O   0  0  0  0  0  0  0  0  0  0  0  0
   26.8320   20.6090   15.6690 N   0  0  0  0  0  0  0  0  0  0  0  0
   26.4990   19.7830   14.6200 C   0  0  0  0  0  0  0  0  0  0  0  0
   26.5410   20.2160   13.4700 O   0  0  0  0  0  0  0  0  0  0  0  0
   25.5760   17.5440   12.6520 C   0  0  0  0  0  0  0  0  0  0  0  0
   26.0380   16.9250    7.8030 N   0  0  0  0  0  0  0  0  0  0  0  0
   23.7730   11.8300    4.5110 C   0  0  0  0  0  0  0  0  0  0  0  0
   24.0670   10.9130    5.4090 N   0  0  0  0  0  0  0  0  0  0  0  0
   24.7464    9.1845    8.6779 H   0  0  0  0  0  0  0  0  0  0  0  0
   23.8606    9.4192    7.1330 H   0  0  0  0  0  0  0  0  0  0  0  0
   25.4708    8.6230    7.1330 H   0  0  0  0  0  0  0  0  0  0  0  0
   25.3687   11.3492    8.3398 H   0  0  0  0  0  0  0  0  0  0  0  0
   26.5926   10.5804    7.2386 H   0  0  0  0  0  0  0  0  0  0  0  0
   25.9320   13.5209    6.3223 H   0  0  0  0  0  0  0  0  0  0  0  0
   26.8158   15.6837    2.7446 H   0  0  0  0  0  0  0  0  0  0  0  0
   28.3915   17.2867    3.8288 H   0  0  0  0  0  0  0  0  0  0  0  0
   28.0822   17.9350    6.2275 H   0  0  0  0  0  0  0  0  0  0  0  0
   23.4312   15.6378    6.6230 H   0  0  0  0  0  0  0  0  0  0  0  0
   24.3868   14.2806    7.0857 H   0  0  0  0  0  0  0  0  0  0  0  0
   25.9504   17.1603   10.0648 H   0  0  0  0  0  0  0  0  0  0  0  0
   22.8588   15.8715   11.4555 H   0  0  0  0  0  0  0  0  0  0  0  0
   22.1955   16.0474   13.8479 H   0  0  0  0  0  0  0  0  0  0  0  0
   23.6949   17.1763   15.4842 H   0  0  0  0  0  0  0  0  0  0  0  0
   27.1069   17.7828   14.9251 H   0  0  0  0  0  0  0  0  0  0  0  0
   24.6366   18.8196   16.4417 H   0  0  0  0  0  0  0  0  0  0  0  0
   25.4156   17.2145   16.6729 H   0  0  0  0  0  0  0  0  0  0  0  0
   26.1245   18.8732   18.3921 H   0  0  0  0  0  0  0  0  0  0  0  0
   27.4977   18.2937   17.3688 H   0  0  0  0  0  0  0  0  0  0  0  0
   27.0632   21.5809   15.4183 H   0  0  0  0  0  0  0  0  0  0  0  0
   26.5355   17.9618   12.3131 H   0  0  0  0  0  0  0  0  0  0  0  0
   23.0782   11.6839    3.6708 H   0  0  0  0  0  0  0  0  0  0  0  0
  1  2  1  0
  2  3  1  0
  3  4  2  0
  4  5  1  0
  5  6  1  0
  6  7  2  0
  6  8  2  0
  6  9  1  0
  9 10  2  0
 10 11  1  0
 11 12  2  0
 12 13  1  0
 13 14  2  0
 14 15  1  0
 15 16  1  0
 16 17  1  0
 17 18  2  0
 17 19  1  0
 19 20  1  0
 20 21  2  0
 21 22  1  0
 22 23  2  0
 23 24  1  0
 24 25  1  0
 25 26  1  0
 26 27  1  0
 27 28  1  0
 28 29  2  0
 28 30  1  0
 30 31  1  0
 31 32  2  0
 24 33  2  0
 16 34  2  0
  5 35  1  0
 35 36  2  0
 36  3  1  0
 14  9  1  0
 33 20  1  0
 34 13  1  0
 31 25  1  0
  1 37  1  0
  1 38  1  0
  1 39  1  0
  2 40  1  0
  2 41  1  0
  4 42  1  0
 10 43  1  0
 11 44  1  0
 12 45  1  0
 15 46  1  0
 15 47  1  0
 19 48  1  0
 21 49  1  0
 22 50  1  0
 23 51  1  0
 25 52  1  1
 26 53  1  0
 26 54  1  0
 27 55  1  0
 27 56  1  0
 30 57  1  0
 33 58  1  0
 35 59  1  0
M  END
>  <meeko>  (339) 
{"is_sidechain": [true], "free_energy": -13.0, "intermolecular_energy": 0.0, "internal_energy": -13.0, "cluster_size": 7, "cluster_id": 1, "rank_in_cluster": 1}

>  <_RMSD_MCS_to_ref>  (339) 
1.200946449680416

$$$$
ligand
     RDKit          3D

 60 64  0  0  0  0  0  0  0  0999 V2000
   24.8710    9.6160    7.7820 C   0  0  0  0  0  0  0  0  0  0  0  0
   25.4240   10.9650    7.3490 C   0  0  0  0  0  0  0  0  0  0  0  0
   26.9020   11.0430    7.5090 C   0  0  0  0  0  0  0  0  0  0  0  0
   27.6800   12.1230    7.8740 C   0  0  0  0  0  0  0  0  0  0  0  0
   28.9540   11.6330    7.8750 N   0  0  0  0  0  0  0  0  0  0  0  0
   30.3560   12.5440    8.0430 S   0  0  0  0  0  6  0  0  0  0  0  0
   31.4580   11.6050    7.9750 O   0  0  0  0  0  0  0  0  0  0  0  0
   30.1340   13.3860    9.2080 O   0  0  0  0  0  0  0  0  0  0  0  0
   30.3680   13.5600    6.5900 C   0  0  0  0  0  0  0  0  0  0  0  0
   31.3750   13.2980    5.6440 C   0  0  0  0  0  0  0  0  0  0  0  0
   31.4210   14.0240    4.4580 C   0  0  0  0  0  0  0  0  0  0  0  0
   30.4710   15.0080    4.2200 C   0  0  0  0  0  0  0  0  0  0  0  0
   29.4780   15.2790    5.1690 C   0  0  0  0  0  0  0  0  0  0  0  0
   29.4070   14.5680    6.3740 C   0  0  0  0  0  0  0  0  0  0  0  0
   28.4250   14.8650    7.3540 N   0  0  0  0  0  0  0  0  0  0  0  0
   27.0760   15.1090    7.1610 C   0  0  0  0  0  0  0  0  0  0  0  0
   26.4610   15.0030    6.1080 O   0  0  0  0  0  0  0  0  0  0  0  0
   26.3100   15.4760    8.3910 C   0  0  0  0  0  0  0  0  0  0  0  0
   24.9880   15.0240    8.6110 C   0  0  0  0  0  0  0  0  0  0  0  0
   24.2950   15.3860    9.7710 C   0  0  0  0  0  0  0  0  0  0  0  0
   24.9570   16.1800   10.6880 C   0  0  0  0  0  0  0  0  0  0  0  0
   26.2640   16.6220   10.4980 C   0  0  0  0  0  0  0  0  0  0  0  0
   26.9580   16.2740    9.3510 C   0  0  0  0  0  0  0  0  0  0  0  0
   26.6900   17.4670   11.6500 C   0  0  0  0  0  0  0  0  0  0  0  0
   25.5500   17.3740   12.5530 N   0  0  0  0  0  0  0  0  0  0  0  0
   25.4380   18.2370   13.7240 C   0  0  2  0  0  0  0  0  0  0  0  0
   26.1390   19.5860   13.5660 C   0  0  0  0  0  0  0  0  0  0  0  0
   25.9070   20.4240   14.8140 C   0  0  0  0  0  0  0  0  0  0  0  0
   26.3810   19.7020   16.0540 C   0  0  0  0  0  0  0  0  0  0  0  0
   26.6870   20.3000   17.0810 O   0  0  0  0  0  0  0  0  0  0  0  0
   26.3760   18.3310   16.0090 N   0  0  0  0  0  0  0  0  0  0  0  0
   25.9320   17.5190   14.9900 C   0  0  0  0  0  0  0  0  0  0  0  0
   25.8510   16.3020   15.1550 O   0  0  0  0  0  0  0  0  0  0  0  0
   24.4820   16.7050   11.9730 C   0  0  0  0  0  0  0  0  0  0  0  0
   23.3500   16.5710   12.3950 O   0  0  0  0  0  0  0  0  0  0  0  0
   28.9320   10.3320    7.4860 C   0  0  0  0  0  0  0  0  0  0  0  0
   27.6960    9.9390    7.2670 N   0  0  0  0  0  0  0  0  0  0  0  0
   24.8497    9.5640    8.8806 H   0  0  0  0  0  0  0  0  0  0  0  0
   23.8507    9.4948    7.3893 H   0  0  0  0  0  0  0  0  0  0  0  0
   25.5127    8.8135    7.3893 H   0  0  0  0  0  0  0  0  0  0  0  0
   25.1729   11.1278    6.2905 H   0  0  0  0  0  0  0  0  0  0  0  0
   24.9732   11.7369    7.9900 H   0  0  0  0  0  0  0  0  0  0  0  0
   27.3490   13.1451    8.1101 H   0  0  0  0  0  0  0  0  0  0  0  0
   32.1262   12.5192    5.8417 H   0  0  0  0  0  0  0  0  0  0  0  0
   32.2049   13.8197    3.7138 H   0  0  0  0  0  0  0  0  0  0  0  0
   30.4987   15.5784    3.2798 H   0  0  0  0  0  0  0  0  0  0  0  0
   28.7380   16.0667    4.9642 H   0  0  0  0  0  0  0  0  0  0  0  0
   28.7564   14.9038    8.3285 H   0  0  0  0  0  0  0  0  0  0  0  0
   24.5002   14.3818    7.8629 H   0  0  0  0  0  0  0  0  0  0  0  0
   23.2620   15.0512    9.9466 H   0  0  0  0  0  0  0  0  0  0  0  0
   27.9924   16.6140    9.1944 H   0  0  0  0  0  0  0  0  0  0  0  0
   27.6014   17.0680   12.1192 H   0  0  0  0  0  0  0  0  0  0  0  0
   26.9390   18.5000   11.3656 H   0  0  0  0  0  0  0  0  0  0  0  0
   24.3653   18.4575   13.8271 H   0  0  0  0  0  0  0  0  0  0  0  0
   27.2183   19.4249   13.4273 H   0  0  0  0  0  0  0  0  0  0  0  0
   25.7324   20.1114   12.6893 H   0  0  0  0  0  0  0  0  0  0  0  0
   26.4582   21.3710   14.7177 H   0  0  0  0  0  0  0  0  0  0  0  0
   24.8275   20.6112   14.9117 H   0  0  0  0  0  0  0  0  0  0  0  0
   26.7503   17.8502   16.8394 H   0  0  0  0  0  0  0  0  0  0  0  0
   29.8224    9.6965    7.3704 H   0  0  0  0  0  0  0  0  0  0  0  0
  1  2  1  0
  2  3  1  0
  3  4  2  0
  4  5  1  0
  5  6  1  0
  6  7  2  0
  6  8  2  0
  6  9  1  0
  9 10  2  0
 10 11  1  0
 11 12  2  0
 12 13  1  0
 13 14  2  0
 14 15  1  0
 15 16  1  0
 16 17  2  0
 16 18  1  0
 18 19  2  0
 19 20  1  0
 20 21  2  0
 21 22  1  0
 22 23  2  0
 22 24  1  0
 24 25  1  0
 25 26  1  0
 26 27  1  0
 27 28  1  0
 28 29  1  0
 29 30  2  0
 29 31  1  0
 31 32  1  0
 32 33  2  0
 25 34  1  0
 34 35  2  0
  5 36  1  0
 36 37  2  0
 37  3  1  0
 14  9  1  0
 23 18  1  0
 32 26  1  0
 34 21  1  0
  1 38  1  0
  1 39  1  0
  1 40  1  0
  2 41  1  0
  2 42  1  0
  4 43  1  0
 10 44  1  0
 11 45  1  0
 12 46  1  0
 13 47  1  0
 15 48  1  0
 19 49  1  0
 20 50  1  0
 23 51  1  0
 24 52  1  0
 24 53  1  0
 26 54  1  1
 27 55  1  0
 27 56  1  0
 28 57  1  0
 28 58  1  0
 31 59  1  0
 36 60  1  0
M  END
>  <meeko>  (340) 
{"is_sidechain": [true], "free_energy": -13.0, "intermolecular_energy": 0.0, "internal_energy": -13.0, "cluster_size": 18, "cluster_id": 1, "rank_in_cluster": 1}

>  <_RMSD_MCS_to_ref>  (340) 
1.8726107022297138

$$$$
ligand
     RDKit          3D

 55 59  0  0  0  0  0  0  0  0999 V2000
   24.8540    9.4020    7.6050 C   0  0  0  0  0  0  0  0  0  0  0  0
   25.5230   10.7550    7.4270 C   0  0  0  0  0  0  0  0  0  0  0  0
   25.0190   11.4790    6.2280 C   0  0  0  0  0  0  0  0  0  0  0  0
   25.2730   12.7760    5.8300 C   0  0  0  0  0  0  0  0  0  0  0  0
   24.5840   12.9080    4.6610 N   0  0  0  0  0  0  0  0  0  0  0  0
   24.5560   14.2350    3.6440 S   0  0  0  0  0  6  0  0  0  0  0  0
   23.4310   15.0660    4.0160 O   0  0  0  0  0  0  0  0  0  0  0  0
   24.7200   13.6960    2.3080 O   0  0  0  0  0  0  0  0  0  0  0  0
   25.9250   15.2160    3.8640 C   0  0  0  0  0  0  0  0  0  0  0  0
   27.0200   15.3050    2.9930 C   0  0  0  0  0  0  0  0  0  0  0  0
   27.9280   16.1800    3.4330 N   0  0  0  0  0  0  0  0  0  0  0  0
   27.4080   16.6900    4.6100 O   0  0  0  0  0  0  0  0  0  0  0  0
   26.1960   16.1100    4.8700 C   0  0  0  0  0  0  0  0  0  0  0  0
   25.4800   16.5020    6.0600 C   0  0  0  0  0  0  0  0  0  0  0  0
   24.4040   17.0790    5.9860 O   0  0  0  0  0  0  0  0  0  0  0  0
   26.1180   16.1520    7.2380 N   0  0  0  0  0  0  0  0  0  0  0  0
   25.6750   16.3710    8.5600 C   0  0  0  0  0  0  0  0  0  0  0  0
   24.4130   15.8260    8.9020 C   0  0  0  0  0  0  0  0  0  0  0  0
   23.8690   15.9820   10.1840 C   0  0  0  0  0  0  0  0  0  0  0  0
   24.6170   16.6870   11.1000 C   0  0  0  0  0  0  0  0  0  0  0  0
   25.8470   17.2240   10.7760 C   0  0  0  0  0  0  0  0  0  0  0  0
   26.4040   17.0860    9.5170 C   0  0  0  0  0  0  0  0  0  0  0  0
   26.3490   17.9170   11.9620 C   0  0  0  0  0  0  0  0  0  0  0  0
   27.3850   18.5510   11.9940 O   0  0  0  0  0  0  0  0  0  0  0  0
   25.4250   17.7210   12.9530 N   0  0  0  0  0  0  0  0  0  0  0  0
   25.4530   18.3640   14.2580 C   0  0  1  0  0  0  0  0  0  0  0  0
   26.4370   17.7420   15.2450 C   0  0  0  0  0  0  0  0  0  0  0  0
   26.3440   18.4780   16.5740 C   0  0  0  0  0  0  0  0  0  0  0  0
   26.5920   19.9590   16.4000 C   0  0  0  0  0  0  0  0  0  0  0  0
   27.0490   20.6560   17.3010 O   0  0  0  0  0  0  0  0  0  0  0  0
   26.2230   20.5080   15.1980 N   0  0  0  0  0  0  0  0  0  0  0  0
   25.7570   19.8560   14.0780 C   0  0  0  0  0  0  0  0  0  0  0  0
   25.5510   20.4750   13.0360 O   0  0  0  0  0  0  0  0  0  0  0  0
   24.3370   17.0300   12.4930 C   0  0  0  0  0  0  0  0  0  0  0  0
   23.3170   16.7280   13.0810 O   0  0  0  0  0  0  0  0  0  0  0  0
   23.9270   11.7490    4.3970 C   0  0  0  0  0  0  0  0  0  0  0  0
   24.1790   10.8520    5.3260 N   0  0  0  0  0  0  0  0  0  0  0  0
   24.7464    9.1845    8.6779 H   0  0  0  0  0  0  0  0  0  0  0  0
   23.8606    9.4192    7.1330 H   0  0  0  0  0  0  0  0  0  0  0  0
   25.4708    8.6230    7.1330 H   0  0  0  0  0  0  0  0  0  0  0  0
   25.3261   11.3675    8.3192 H   0  0  0  0  0  0  0  0  0  0  0  0
   26.6006   10.5829    7.2889 H   0  0  0  0  0  0  0  0  0  0  0  0
   25.8902   13.5306    6.3395 H   0  0  0  0  0  0  0  0  0  0  0  0
   27.1190   14.7261    2.0629 H   0  0  0  0  0  0  0  0  0  0  0  0
   27.0250   15.6744    7.1374 H   0  0  0  0  0  0  0  0  0  0  0  0
   23.8463   15.2668    8.1429 H   0  0  0  0  0  0  0  0  0  0  0  0
   22.8878   15.5599   10.4468 H   0  0  0  0  0  0  0  0  0  0  0  0
   27.3847   17.5226    9.2769 H   0  0  0  0  0  0  0  0  0  0  0  0
   24.4578   18.2146   14.7021 H   0  0  0  0  0  0  0  0  0  0  0  0
   26.1880   16.6809   15.3937 H   0  0  0  0  0  0  0  0  0  0  0  0
   27.4598   17.8227   14.8482 H   0  0  0  0  0  0  0  0  0  0  0  0
   25.3390   18.3301   16.9960 H   0  0  0  0  0  0  0  0  0  0  0  0
   27.1128   18.0741   17.2492 H   0  0  0  0  0  0  0  0  0  0  0  0
   26.3044   21.5321   15.1243 H   0  0  0  0  0  0  0  0  0  0  0  0
   23.2746   11.5832    3.5270 H   0  0  0  0  0  0  0  0  0  0  0  0
  1  2  1  0
  2  3  1  0
  3  4  2  0
  4  5  1  0
  5  6  1  0
  6  7  2  0
  6  8  2  0
  6  9  1  0
  9 10  1  0
 10 11  2  0
 11 12  1  0
 12 13  1  0
 13 14  1  0
 14 15  2  0
 14 16  1  0
 16 17  1  0
 17 18  2  0
 18 19  1  0
 19 20  2  0
 20 21  1  0
 21 22  2  0
 21 23  1  0
 23 24  2  0
 23 25  1  0
 25 26  1  0
 26 27  1  0
 27 28  1  0
 28 29  1  0
 29 30  2  0
 29 31  1  0
 31 32  1  0
 32 33  2  0
 25 34  1  0
 34 35  2  0
  5 36  1  0
 36 37  2  0
 37  3  1  0
 13  9  2  0
 22 17  1  0
 32 26  1  0
 34 20  1  0
  1 38  1  0
  1 39  1  0
  1 40  1  0
  2 41  1  0
  2 42  1  0
  4 43  1  0
 10 44  1  0
 16 45  1  0
 18 46  1  0
 19 47  1  0
 22 48  1  0
 26 49  1  1
 27 50  1  0
 27 51  1  0
 28 52  1  0
 28 53  1  0
 31 54  1  0
 36 55  1  0
M  END
>  <meeko>  (341) 
{"is_sidechain": [true], "free_energy": -12.99, "intermolecular_energy": 0.0, "internal_energy": -12.99, "cluster_size": 17, "cluster_id": 1, "rank_in_cluster": 1}

>  <_RMSD_MCS_to_ref>  (341) 
0.6750525905438768

$$$$
ligand
     RDKit          3D

 62 66  0  0  0  0  0  0  0  0999 V2000
   24.8540    9.4020    7.6050 C   0  0  0  0  0  0  0  0  0  0  0  0
   25.5230   10.7550    7.4270 C   0  0  0  0  0  0  0  0  0  0  0  0
   26.9090   10.6300    6.8990 C   0  0  0  0  0  0  0  0  0  0  0  0
   27.3810   10.9140    5.6340 C   0  0  0  0  0  0  0  0  0  0  0  0
   28.7160   10.6380    5.7040 N   0  0  0  0  0  0  0  0  0  0  0  0
   29.8710   11.0130    4.5400 S   0  0  0  0  0  6  0  0  0  0  0  0
   29.4260   10.3930    3.3090 O   0  0  0  0  0  0  0  0  0  0  0  0
   31.1430   10.6880    5.1590 O   0  0  0  0  0  0  0  0  0  0  0  0
   29.7650   12.7710    4.3520 C   0  0  0  0  0  0  0  0  0  0  0  0
   30.5250   13.4040    3.3660 C   0  0  0  0  0  0  0  0  0  0  0  0
   30.4480   14.7870    3.2330 C   0  0  0  0  0  0  0  0  0  0  0  0
   29.6180   15.5270    4.0810 C   0  0  0  0  0  0  0  0  0  0  0  0
   28.8470   14.8940    5.0660 C   0  0  0  0  0  0  0  0  0  0  0  0
   28.0500   15.7180    5.8890 N   0  0  0  0  0  0  0  0  0  0  0  0
   27.7920   15.5680    7.2460 C   0  0  0  0  0  0  0  0  0  0  0  0
   28.1820   14.6310    7.9320 O   0  0  0  0  0  0  0  0  0  0  0  0
   27.0390   16.6350    7.7140 N   0  0  0  0  0  0  0  0  0  0  0  0
   26.4900   16.7950    9.0050 C   0  0  0  0  0  0  0  0  0  0  0  0
   25.4830   15.8780    9.3880 C   0  0  0  0  0  0  0  0  0  0  0  0
   24.8800   15.9460   10.6480 C   0  0  0  0  0  0  0  0  0  0  0  0
   25.3110   16.9400   11.5010 C   0  0  0  0  0  0  0  0  0  0  0  0
   26.3080   17.8450   11.1540 C   0  0  0  0  0  0  0  0  0  0  0  0
   26.9110   17.7830    9.9070 C   0  0  0  0  0  0  0  0  0  0  0  0
   26.5760   18.7690   12.2930 C   0  0  0  0  0  0  0  0  0  0  0  0
   25.5640   18.3790   13.2660 N   0  0  0  0  0  0  0  0  0  0  0  0
   25.5930   18.8870   14.6330 C   0  0  1  0  0  0  0  0  0  0  0  0
   26.6890   18.2650   15.4970 C   0  0  0  0  0  0  0  0  0  0  0  0
   26.5910   18.8160   16.9100 C   0  0  0  0  0  0  0  0  0  0  0  0
   26.6800   20.3250   16.9160 C   0  0  0  0  0  0  0  0  0  0  0  0
   27.0460   20.9550   17.9050 O   0  0  0  0  0  0  0  0  0  0  0  0
   26.2500   20.9730   15.7860 N   0  0  0  0  0  0  0  0  0  0  0  0
   25.6970   20.4210   14.6520 C   0  0  0  0  0  0  0  0  0  0  0  0
   25.2280   21.1450   13.7750 O   0  0  0  0  0  0  0  0  0  0  0  0
   24.8730   17.2450   12.8680 C   0  0  0  0  0  0  0  0  0  0  0  0
   24.0670   16.5870   13.4970 O   0  0  0  0  0  0  0  0  0  0  0  0
   28.9190   13.5060    5.1910 C   0  0  0  0  0  0  0  0  0  0  0  0
   29.0200   10.2290    6.9630 C   0  0  0  0  0  0  0  0  0  0  0  0
   27.9390   10.2020    7.7140 N   0  0  0  0  0  0  0  0  0  0  0  0
   24.7464    9.1845    8.6779 H   0  0  0  0  0  0  0  0  0  0  0  0
   23.8606    9.4192    7.1330 H   0  0  0  0  0  0  0  0  0  0  0  0
   25.4708    8.6230    7.1330 H   0  0  0  0  0  0  0  0  0  0  0  0
   24.9280   11.3548    6.7226 H   0  0  0  0  0  0  0  0  0  0  0  0
   25.5791   11.2372    8.4141 H   0  0  0  0  0  0  0  0  0  0  0  0
   26.8114   11.2795    4.7668 H   0  0  0  0  0  0  0  0  0  0  0  0
   31.1766   12.8164    2.7026 H   0  0  0  0  0  0  0  0  0  0  0  0
   31.0405   15.2986    2.4602 H   0  0  0  0  0  0  0  0  0  0  0  0
   29.5694   16.6207    3.9737 H   0  0  0  0  0  0  0  0  0  0  0  0
   27.6071   16.5263    5.4293 H   0  0  0  0  0  0  0  0  0  0  0  0
   26.8602   17.3966    7.0440 H   0  0  0  0  0  0  0  0  0  0  0  0
   25.1682   15.0963    8.6810 H   0  0  0  0  0  0  0  0  0  0  0  0
   24.0945   15.2360   10.9462 H   0  0  0  0  0  0  0  0  0  0  0  0
   27.7034   18.4942    9.6308 H   0  0  0  0  0  0  0  0  0  0  0  0
   27.5896   18.6211   12.6938 H   0  0  0  0  0  0  0  0  0  0  0  0
   26.5269   19.8319   12.0140 H   0  0  0  0  0  0  0  0  0  0  0  0
   24.6359   18.5839   15.0826 H   0  0  0  0  0  0  0  0  0  0  0  0
   26.5630   17.1725   15.5195 H   0  0  0  0  0  0  0  0  0  0  0  0
   27.6743   18.5108   15.0741 H   0  0  0  0  0  0  0  0  0  0  0  0
   25.6289   18.5116   17.3478 H   0  0  0  0  0  0  0  0  0  0  0  0
   27.4293   18.4154   17.4989 H   0  0  0  0  0  0  0  0  0  0  0  0
   26.3534   21.9978   15.7856 H   0  0  0  0  0  0  0  0  0  0  0  0
   28.3112   12.9896    5.9485 H   0  0  0  0  0  0  0  0  0  0  0  0
   30.0290    9.9580    7.3073 H   0  0  0  0  0  0  0  0  0  0  0  0
  1  2  1  0
  2  3  1  0
  3  4  2  0
  4  5  1  0
  5  6  1  0
  6  7  2  0
  6  8  2  0
  6  9  1  0
  9 10  2  0
 10 11  1  0
 11 12  2  0
 12 13  1  0
 13 14  1  0
 14 15  1  0
 15 16  2  0
 15 17  1  0
 17 18  1  0
 18 19  2  0
 19 20  1  0
 20 21  2  0
 21 22  1  0
 22 23  2  0
 22 24  1  0
 24 25  1  0
 25 26  1  0
 26 27  1  0
 27 28  1  0
 28 29  1  0
 29 30  2  0
 29 31  1  0
 31 32  1  0
 32 33  2  0
 25 34  1  0
 34 35  2  0
 13 36  2  0
  5 37  1  0
 37 38  2  0
 38  3  1  0
 36  9  1  0
 23 18  1  0
 32 26  1  0
 34 21  1  0
  1 39  1  0
  1 40  1  0
  1 41  1  0
  2 42  1  0
  2 43  1  0
  4 44  1  0
 10 45  1  0
 11 46  1  0
 12 47  1  0
 14 48  1  0
 17 49  1  0
 19 50  1  0
 20 51  1  0
 23 52  1  0
 24 53  1  0
 24 54  1  0
 26 55  1  1
 27 56  1  0
 27 57  1  0
 28 58  1  0
 28 59  1  0
 31 60  1  0
 36 61  1  0
 37 62  1  0
M  END
>  <meeko>  (342) 
{"is_sidechain": [true], "free_energy": -12.99, "intermolecular_energy": 0.0, "internal_energy": -12.99, "cluster_size": 20, "cluster_id": 1, "rank_in_cluster": 1}

>  <_RMSD_MCS_to_ref>  (342) 
0.8199464074627745

$$$$
ligand
     RDKit          3D

 55 59  0  0  0  0  0  0  0  0999 V2000
   24.8710    9.6160    7.7820 C   0  0  0  0  0  0  0  0  0  0  0  0
   25.4240   10.9650    7.3490 C   0  0  0  0  0  0  0  0  0  0  0  0
   26.5700   11.4070    8.1920 C   0  0  0  0  0  0  0  0  0  0  0  0
   27.5810   12.2970    7.8840 C   0  0  0  0  0  0  0  0  0  0  0  0
   28.3530   12.3290    9.0110 N   0  0  0  0  0  0  0  0  0  0  0  0
   29.5560   13.4660    9.3310 S   0  0  0  0  0  6  0  0  0  0  0  0
   30.6030   13.1690    8.3720 O   0  0  0  0  0  0  0  0  0  0  0  0
   29.7820   13.3810   10.7620 O   0  0  0  0  0  0  0  0  0  0  0  0
   28.8830   14.9180    8.9860 O   0  0  0  0  0  0  0  0  0  0  0  0
   28.1630   15.0310    7.8220 C   0  0  0  0  0  0  0  0  0  0  0  0
   28.7890   14.6970    6.6240 C   0  0  0  0  0  0  0  0  0  0  0  0
   28.0630   14.8390    5.4580 C   0  0  0  0  0  0  0  0  0  0  0  0
   26.7930   15.2920    5.4240 N   0  0  0  0  0  0  0  0  0  0  0  0
   26.2220   15.6190    6.6090 C   0  0  0  0  0  0  0  0  0  0  0  0
   26.8490   15.5200    7.8500 C   0  0  0  0  0  0  0  0  0  0  0  0
   26.1500   15.8930    9.0900 C   0  0  0  0  0  0  0  0  0  0  0  0
   24.9300   15.2520    9.4460 C   0  0  0  0  0  0  0  0  0  0  0  0
   24.2530   15.5540   10.6340 C   0  0  0  0  0  0  0  0  0  0  0  0
   24.8190   16.5040   11.4560 C   0  0  0  0  0  0  0  0  0  0  0  0
   26.0020   17.1360   11.1290 C   0  0  0  0  0  0  0  0  0  0  0  0
   26.6860   16.8620    9.9600 C   0  0  0  0  0  0  0  0  0  0  0  0
   26.3340   18.0390   12.2280 C   0  0  0  0  0  0  0  0  0  0  0  0
   27.3480   18.7080   12.2780 O   0  0  0  0  0  0  0  0  0  0  0  0
   25.3150   17.9470   13.1380 N   0  0  0  0  0  0  0  0  0  0  0  0
   25.3760   18.5730   14.4490 C   0  0  1  0  0  0  0  0  0  0  0  0
   26.3490   17.9090   15.4200 C   0  0  0  0  0  0  0  0  0  0  0  0
   26.2950   18.6340   16.7570 C   0  0  0  0  0  0  0  0  0  0  0  0
   26.5890   20.1080   16.5940 C   0  0  0  0  0  0  0  0  0  0  0  0
   27.0890   20.7800   17.4920 O   0  0  0  0  0  0  0  0  0  0  0  0
   26.2190   20.6830   15.4030 N   0  0  0  0  0  0  0  0  0  0  0  0
   25.7290   20.0550   14.2800 C   0  0  0  0  0  0  0  0  0  0  0  0
   25.5440   20.6870   13.2410 O   0  0  0  0  0  0  0  0  0  0  0  0
   24.3940   17.0070   12.7620 C   0  0  0  0  0  0  0  0  0  0  0  0
   23.4190   16.6030   13.3630 O   0  0  0  0  0  0  0  0  0  0  0  0
   27.7820   11.5470    9.9630 C   0  0  0  0  0  0  0  0  0  0  0  0
   26.7120   10.9470    9.4870 N   0  0  0  0  0  0  0  0  0  0  0  0
   24.8497    9.5640    8.8806 H   0  0  0  0  0  0  0  0  0  0  0  0
   23.8507    9.4948    7.3893 H   0  0  0  0  0  0  0  0  0  0  0  0
   25.5127    8.8135    7.3893 H   0  0  0  0  0  0  0  0  0  0  0  0
   25.7621   10.8894    6.3050 H   0  0  0  0  0  0  0  0  0  0  0  0
   24.6203   11.7078    7.4600 H   0  0  0  0  0  0  0  0  0  0  0  0
   27.7302   12.8525    6.9464 H   0  0  0  0  0  0  0  0  0  0  0  0
   29.8267   14.3324    6.6070 H   0  0  0  0  0  0  0  0  0  0  0  0
   28.5456   14.5686    4.5072 H   0  0  0  0  0  0  0  0  0  0  0  0
   25.1867   15.9902    6.5899 H   0  0  0  0  0  0  0  0  0  0  0  0
   24.5063   14.4968    8.7676 H   0  0  0  0  0  0  0  0  0  0  0  0
   23.3098   15.0542   10.8996 H   0  0  0  0  0  0  0  0  0  0  0  0
   27.6221   17.3856    9.7161 H   0  0  0  0  0  0  0  0  0  0  0  0
   24.3810   18.4508   14.9018 H   0  0  0  0  0  0  0  0  0  0  0  0
   26.0663   16.8554   15.5612 H   0  0  0  0  0  0  0  0  0  0  0  0
   27.3697   17.9600   15.0130 H   0  0  0  0  0  0  0  0  0  0  0  0
   25.2906   18.5145   17.1893 H   0  0  0  0  0  0  0  0  0  0  0  0
   27.0577   18.1987   17.4194 H   0  0  0  0  0  0  0  0  0  0  0  0
   26.3201   21.7062   15.3427 H   0  0  0  0  0  0  0  0  0  0  0  0
   28.1611   11.4312   10.9891 H   0  0  0  0  0  0  0  0  0  0  0  0
  1  2  1  0
  2  3  1  0
  3  4  2  0
  4  5  1  0
  5  6  1  0
  6  7  2  0
  6  8  2  0
  6  9  1  0
  9 10  1  0
 10 11  2  0
 11 12  1  0
 12 13  2  0
 13 14  1  0
 14 15  2  0
 15 16  1  0
 16 17  2  0
 17 18  1  0
 18 19  2  0
 19 20  1  0
 20 21  2  0
 20 22  1  0
 22 23  2  0
 22 24  1  0
 24 25  1  0
 25 26  1  0
 26 27  1  0
 27 28  1  0
 28 29  2  0
 28 30  1  0
 30 31  1  0
 31 32  2  0
 24 33  1  0
 33 34  2  0
  5 35  1  0
 35 36  2  0
 36  3  1  0
 15 10  1  0
 21 16  1  0
 31 25  1  0
 33 19  1  0
  1 37  1  0
  1 38  1  0
  1 39  1  0
  2 40  1  0
  2 41  1  0
  4 42  1  0
 11 43  1  0
 12 44  1  0
 14 45  1  0
 17 46  1  0
 18 47  1  0
 21 48  1  0
 25 49  1  1
 26 50  1  0
 26 51  1  0
 27 52  1  0
 27 53  1  0
 30 54  1  0
 35 55  1  0
M  END
>  <meeko>  (343) 
{"is_sidechain": [true], "free_energy": -12.99, "intermolecular_energy": 0.0, "internal_energy": -12.99, "cluster_size": 10, "cluster_id": 1, "rank_in_cluster": 1}

>  <_RMSD_MCS_to_ref>  (343) 
0.8165253726679452

$$$$
ligand
     RDKit          3D

 61 66  0  0  0  0  0  0  0  0999 V2000
   24.8710    9.6160    7.7820 C   0  0  0  0  0  0  0  0  0  0  0  0
   25.4240   10.9650    7.3490 C   0  0  0  0  0  0  0  0  0  0  0  0
   25.0130   11.3240    5.9650 C   0  0  0  0  0  0  0  0  0  0  0  0
   24.1850   12.3450    5.5410 C   0  0  0  0  0  0  0  0  0  0  0  0
   24.1310   12.1900    4.1840 N   0  0  0  0  0  0  0  0  0  0  0  0
   23.4740   13.3060    3.1010 S   0  0  0  0  0  6  0  0  0  0  0  0
   23.9790   12.8970    1.8010 O   0  0  0  0  0  0  0  0  0  0  0  0
   22.0490   13.2780    3.3830 O   0  0  0  0  0  0  0  0  0  0  0  0
   24.1320   14.8630    3.5250 C   0  0  0  0  0  0  0  0  0  0  0  0
   24.1780   15.9680    2.5720 C   0  0  0  0  0  0  0  0  0  0  0  0
   24.6930   17.1650    2.9130 C   0  0  0  0  0  0  0  0  0  0  0  0
   25.2110   17.3680    4.2240 C   0  0  0  0  0  0  0  0  0  0  0  0
   25.7140   18.4420    4.7910 N   0  0  0  0  0  0  0  0  0  0  0  0
   26.0360   18.0580    6.0670 C   0  0  0  0  0  0  0  0  0  0  0  0
   25.7750   16.7190    6.2790 C   0  0  0  0  0  0  0  0  0  0  0  0
   25.9290   15.9520    7.3940 N   0  0  0  0  0  0  0  0  0  0  0  0
   25.4690   16.2840    8.6980 C   0  0  0  0  0  0  0  0  0  0  0  0
   24.1760   15.8370    9.0680 C   0  0  0  0  0  0  0  0  0  0  0  0
   23.6580   16.0740   10.3450 C   0  0  0  0  0  0  0  0  0  0  0  0
   24.4620   16.7540   11.2350 C   0  0  0  0  0  0  0  0  0  0  0  0
   25.7370   17.2060   10.9030 C   0  0  0  0  0  0  0  0  0  0  0  0
   26.2510   16.9810    9.6360 C   0  0  0  0  0  0  0  0  0  0  0  0
   26.3460   17.9150   12.0660 C   0  0  0  0  0  0  0  0  0  0  0  0
   25.3410   17.7400   13.1070 N   0  0  0  0  0  0  0  0  0  0  0  0
   25.3640   18.4580   14.3750 C   0  0  1  0  0  0  0  0  0  0  0  0
   26.3090   17.8220   15.3900 C   0  0  0  0  0  0  0  0  0  0  0  0
   26.2100   18.5690   16.7110 C   0  0  0  0  0  0  0  0  0  0  0  0
   26.4870   20.0430   16.5260 C   0  0  0  0  0  0  0  0  0  0  0  0
   27.0760   20.7110   17.3700 O   0  0  0  0  0  0  0  0  0  0  0  0
   26.0310   20.6120   15.3650 N   0  0  0  0  0  0  0  0  0  0  0  0
   25.7420   19.9380   14.1990 C   0  0  0  0  0  0  0  0  0  0  0  0
   25.8060   20.5170   13.1170 O   0  0  0  0  0  0  0  0  0  0  0  0
   24.1890   17.1360   12.6250 C   0  0  0  0  0  0  0  0  0  0  0  0
   23.1420   16.9410   13.2110 O   0  0  0  0  0  0  0  0  0  0  0  0
   25.1880   16.2820    5.1000 N   0  0  0  0  0  0  0  0  0  0  0  0
   24.6330   15.0450    4.7610 C   0  0  0  0  0  0  0  0  0  0  0  0
   24.9410   11.1640    3.8200 C   0  0  0  0  0  0  0  0  0  0  0  0
   25.4840   10.6060    4.8830 N   0  0  0  0  0  0  0  0  0  0  0  0
   24.8497    9.5640    8.8806 H   0  0  0  0  0  0  0  0  0  0  0  0
   23.8507    9.4948    7.3893 H   0  0  0  0  0  0  0  0  0  0  0  0
   25.5127    8.8135    7.3893 H   0  0  0  0  0  0  0  0  0  0  0  0
   25.0545   11.7373    8.0396 H   0  0  0  0  0  0  0  0  0  0  0  0
   26.5220   10.9015    7.3690 H   0  0  0  0  0  0  0  0  0  0  0  0
   23.6839   13.1080    6.1547 H   0  0  0  0  0  0  0  0  0  0  0  0
   23.7844   15.8202    1.5555 H   0  0  0  0  0  0  0  0  0  0  0  0
   24.7135   17.9847    2.1798 H   0  0  0  0  0  0  0  0  0  0  0  0
   26.4515   18.7341    6.8288 H   0  0  0  0  0  0  0  0  0  0  0  0
   26.4211   15.0540    7.2831 H   0  0  0  0  0  0  0  0  0  0  0  0
   23.5658   15.2909    8.3335 H   0  0  0  0  0  0  0  0  0  0  0  0
   22.6514   15.7323   10.6276 H   0  0  0  0  0  0  0  0  0  0  0  0
   27.2550   17.3420    9.3682 H   0  0  0  0  0  0  0  0  0  0  0  0
   27.3020   17.4544   12.3556 H   0  0  0  0  0  0  0  0  0  0  0  0
   26.5836   18.9691   11.8602 H   0  0  0  0  0  0  0  0  0  0  0  0
   24.3361   18.3939   14.7613 H   0  0  0  0  0  0  0  0  0  0  0  0
   26.0292   16.7691   15.5421 H   0  0  0  0  0  0  0  0  0  0  0  0
   27.3414   17.8760   15.0143 H   0  0  0  0  0  0  0  0  0  0  0  0
   25.1966   18.4427   17.1198 H   0  0  0  0  0  0  0  0  0  0  0  0
   26.9604   18.1570   17.4018 H   0  0  0  0  0  0  0  0  0  0  0  0
   25.8924   21.6326   15.3646 H   0  0  0  0  0  0  0  0  0  0  0  0
   24.6058   14.2280    5.4971 H   0  0  0  0  0  0  0  0  0  0  0  0
   25.1193   10.8431    2.7831 H   0  0  0  0  0  0  0  0  0  0  0  0
  1  2  1  0
  2  3  1  0
  3  4  2  0
  4  5  1  0
  5  6  1  0
  6  7  2  0
  6  8  2  0
  6  9  1  0
  9 10  1  0
 10 11  2  0
 11 12  1  0
 12 13  2  0
 13 14  1  0
 14 15  2  0
 15 16  1  0
 16 17  1  0
 17 18  2  0
 18 19  1  0
 19 20  2  0
 20 21  1  0
 21 22  2  0
 21 23  1  0
 23 24  1  0
 24 25  1  0
 25 26  1  0
 26 27  1  0
 27 28  1  0
 28 29  2  0
 28 30  1  0
 30 31  1  0
 31 32  2  0
 24 33  1  0
 33 34  2  0
 15 35  1  0
 35 36  1  0
  5 37  1  0
 37 38  2  0
 38  3  1  0
 36  9  2  0
 35 12  1  0
 22 17  1  0
 31 25  1  0
 33 20  1  0
  1 39  1  0
  1 40  1  0
  1 41  1  0
  2 42  1  0
  2 43  1  0
  4 44  1  0
 10 45  1  0
 11 46  1  0
 14 47  1  0
 16 48  1  0
 18 49  1  0
 19 50  1  0
 22 51  1  0
 23 52  1  0
 23 53  1  0
 25 54  1  1
 26 55  1  0
 26 56  1  0
 27 57  1  0
 27 58  1  0
 30 59  1  0
 36 60  1  0
 37 61  1  0
M  END
>  <meeko>  (344) 
{"is_sidechain": [true], "free_energy": -12.99, "intermolecular_energy": 0.0, "internal_energy": -12.99, "cluster_size": 9, "cluster_id": 1, "rank_in_cluster": 1}

>  <_RMSD_MCS_to_ref>  (344) 
0.7188770564027083

$$$$
ligand
     RDKit          3D

 53 57  0  0  0  0  0  0  0  0999 V2000
   24.8710    9.6160    7.7820 C   0  0  0  0  0  0  0  0  0  0  0  0
   25.4240   10.9650    7.3490 C   0  0  0  0  0  0  0  0  0  0  0  0
   26.8410   11.1500    7.7680 C   0  0  0  0  0  0  0  0  0  0  0  0
   27.3760   12.1000    8.6130 C   0  0  0  0  0  0  0  0  0  0  0  0
   28.7110   11.8180    8.6330 N   0  0  0  0  0  0  0  0  0  0  0  0
   29.9340   12.7590    9.3130 S   0  0  0  0  0  6  0  0  0  0  0  0
   29.8820   12.5050   10.7410 O   0  0  0  0  0  0  0  0  0  0  0  0
   31.1130   12.4100    8.5400 O   0  0  0  0  0  0  0  0  0  0  0  0
   29.6000   14.3250    9.0140 O   0  0  0  0  0  0  0  0  0  0  0  0
   28.3370   14.7750    8.9860 C   0  0  0  0  0  0  0  0  0  0  0  0
   27.5530   14.8280   10.1110 C   0  0  0  0  0  0  0  0  0  0  0  0
   26.3570   15.3570    9.6780 N   0  0  0  0  0  0  0  0  0  0  0  0
   25.1810   15.6280   10.4230 C   0  0  0  0  0  0  0  0  0  0  0  0
   23.9490   15.0500   10.0520 C   0  0  0  0  0  0  0  0  0  0  0  0
   22.7750   15.3020   10.7880 C   0  0  0  0  0  0  0  0  0  0  0  0
   22.8030   16.1310   11.9060 C   0  0  0  0  0  0  0  0  0  0  0  0
   24.0180   16.6920   12.2510 C   0  0  0  0  0  0  0  0  0  0  0  0
   25.2000   16.4620   11.5400 C   0  0  0  0  0  0  0  0  0  0  0  0
   26.3190   17.2050   12.2060 C   0  0  0  0  0  0  0  0  0  0  0  0
   25.6480   17.9230   13.2810 N   0  0  0  0  0  0  0  0  0  0  0  0
   26.3610   18.5680   14.3770 C   0  0  2  0  0  0  0  0  0  0  0  0
   26.0220   17.9570   15.7350 C   0  0  0  0  0  0  0  0  0  0  0  0
   26.8630   18.6240   16.8120 C   0  0  0  0  0  0  0  0  0  0  0  0
   26.6720   20.1220   16.8050 C   0  0  0  0  0  0  0  0  0  0  0  0
   26.6890   20.7920   17.8340 O   0  0  0  0  0  0  0  0  0  0  0  0
   26.4960   20.7140   15.5810 N   0  0  0  0  0  0  0  0  0  0  0  0
   26.0910   20.0820   14.4260 C   0  0  0  0  0  0  0  0  0  0  0  0
   25.5550   20.7210   13.5250 O   0  0  0  0  0  0  0  0  0  0  0  0
   24.3110   17.5810   13.3800 C   0  0  0  0  0  0  0  0  0  0  0  0
   23.5070   17.9270   14.2230 O   0  0  0  0  0  0  0  0  0  0  0  0
   26.4440   15.6130    8.3480 N   0  0  0  0  0  0  0  0  0  0  0  0
   27.6450   15.2540    7.9230 N   0  0  0  0  0  0  0  0  0  0  0  0
   28.9550   10.7620    7.8130 C   0  0  0  0  0  0  0  0  0  0  0  0
   27.8340   10.3250    7.2780 N   0  0  0  0  0  0  0  0  0  0  0  0
   24.8497    9.5640    8.8806 H   0  0  0  0  0  0  0  0  0  0  0  0
   23.8507    9.4948    7.3893 H   0  0  0  0  0  0  0  0  0  0  0  0
   25.5127    8.8135    7.3893 H   0  0  0  0  0  0  0  0  0  0  0  0
   25.3659   11.0369    6.2529 H   0  0  0  0  0  0  0  0  0  0  0  0
   24.8226   11.7488    7.8327 H   0  0  0  0  0  0  0  0  0  0  0  0
   26.8471   12.9021    9.1486 H   0  0  0  0  0  0  0  0  0  0  0  0
   27.8202   14.5171   11.1318 H   0  0  0  0  0  0  0  0  0  0  0  0
   23.9044   14.3909    9.1725 H   0  0  0  0  0  0  0  0  0  0  0  0
   21.8269   14.8394   10.4765 H   0  0  0  0  0  0  0  0  0  0  0  0
   21.8938   16.3316   12.4918 H   0  0  0  0  0  0  0  0  0  0  0  0
   27.0715   16.5094   12.6058 H   0  0  0  0  0  0  0  0  0  0  0  0
   26.8653   17.8684   11.5193 H   0  0  0  0  0  0  0  0  0  0  0  0
   27.4284   18.3976   14.1731 H   0  0  0  0  0  0  0  0  0  0  0  0
   24.9552   18.1142   15.9523 H   0  0  0  0  0  0  0  0  0  0  0  0
   26.2360   16.8782   15.7167 H   0  0  0  0  0  0  0  0  0  0  0  0
   26.5662   18.2291   17.7948 H   0  0  0  0  0  0  0  0  0  0  0  0
   27.9224   18.4072   16.6105 H   0  0  0  0  0  0  0  0  0  0  0  0
   26.6840   21.7248   15.5194 H   0  0  0  0  0  0  0  0  0  0  0  0
   29.9497   10.3325    7.6229 H   0  0  0  0  0  0  0  0  0  0  0  0
  1  2  1  0
  2  3  1  0
  3  4  2  0
  4  5  1  0
  5  6  1  0
  6  7  2  0
  6  8  2  0
  6  9  1  0
  9 10  1  0
 10 11  2  0
 11 12  1  0
 12 13  1  0
 13 14  2  0
 14 15  1  0
 15 16  2  0
 16 17  1  0
 17 18  2  0
 18 19  1  0
 19 20  1  0
 20 21  1  0
 21 22  1  0
 22 23  1  0
 23 24  1  0
 24 25  2  0
 24 26  1  0
 26 27  1  0
 27 28  2  0
 20 29  1  0
 29 30  2  0
 12 31  1  0
 31 32  2  0
  5 33  1  0
 33 34  2  0
 34  3  1  0
 32 10  1  0
 18 13  1  0
 27 21  1  0
 29 17  1  0
  1 35  1  0
  1 36  1  0
  1 37  1  0
  2 38  1  0
  2 39  1  0
  4 40  1  0
 11 41  1  0
 14 42  1  0
 15 43  1  0
 16 44  1  0
 19 45  1  0
 19 46  1  0
 21 47  1  6
 22 48  1  0
 22 49  1  0
 23 50  1  0
 23 51  1  0
 26 52  1  0
 33 53  1  0
M  END
>  <meeko>  (345) 
{"is_sidechain": [true], "free_energy": -12.99, "intermolecular_energy": 0.0, "internal_energy": -12.99, "cluster_size": 17, "cluster_id": 1, "rank_in_cluster": 1}

>  <_RMSD_MCS_to_ref>  (345) 
1.2250449198113331

$$$$
ligand
     RDKit          3D

 59 64  0  0  0  0  0  0  0  0999 V2000
   24.8540    9.4020    7.6050 C   0  0  0  0  0  0  0  0  0  0  0  0
   25.5230   10.7550    7.4270 C   0  0  0  0  0  0  0  0  0  0  0  0
   25.3550   11.2870    6.0480 C   0  0  0  0  0  0  0  0  0  0  0  0
   26.1110   12.2340    5.3830 C   0  0  0  0  0  0  0  0  0  0  0  0
   25.5360   12.3060    4.1460 N   0  0  0  0  0  0  0  0  0  0  0  0
   25.9190   13.4350    2.9580 S   0  0  0  0  0  6  0  0  0  0  0  0
   25.3930   12.8450    1.7410 O   0  0  0  0  0  0  0  0  0  0  0  0
   27.3410   13.7030    3.0870 O   0  0  0  0  0  0  0  0  0  0  0  0
   25.0670   14.8070    3.2400 O   0  0  0  0  0  0  0  0  0  0  0  0
   25.2910   15.5910    4.3630 C   0  0  0  0  0  0  0  0  0  0  0  0
   25.9250   16.7670    4.2430 C   0  0  0  0  0  0  0  0  0  0  0  0
   26.1090   17.5290    5.5030 C   0  0  0  0  0  0  0  0  0  0  0  0
   25.6990   17.1730    6.6820 N   0  0  0  0  0  0  0  0  0  0  0  0
   25.0290   15.9780    6.7600 C   0  0  0  0  0  0  0  0  0  0  0  0
   24.4330   15.3030    7.8130 C   0  0  0  0  0  0  0  0  0  0  0  0
   24.3910   15.7460    9.1980 C   0  0  0  0  0  0  0  0  0  0  0  0
   23.3050   15.3630   10.0210 C   0  0  0  0  0  0  0  0  0  0  0  0
   23.2350   15.7580   11.3620 C   0  0  0  0  0  0  0  0  0  0  0  0
   24.2660   16.5360   11.8480 C   0  0  0  0  0  0  0  0  0  0  0  0
   25.3490   16.9240   11.0630 C   0  0  0  0  0  0  0  0  0  0  0  0
   25.4260   16.5330    9.7360 C   0  0  0  0  0  0  0  0  0  0  0  0
   26.3020   17.7370   11.8730 C   0  0  0  0  0  0  0  0  0  0  0  0
   25.6130   17.8520   13.1530 N   0  0  0  0  0  0  0  0  0  0  0  0
   26.2480   18.3540   14.3650 C   0  0  2  0  0  0  0  0  0  0  0  0
   25.8340   17.5720   15.6070 C   0  0  0  0  0  0  0  0  0  0  0  0
   26.6040   18.0930   16.8120 C   0  0  0  0  0  0  0  0  0  0  0  0
   26.4010   19.5800   16.9870 C   0  0  0  0  0  0  0  0  0  0  0  0
   26.3350   20.1070   18.0930 O   0  0  0  0  0  0  0  0  0  0  0  0
   26.3100   20.3260   15.8400 N   0  0  0  0  0  0  0  0  0  0  0  0
   25.9620   19.8480   14.5960 C   0  0  0  0  0  0  0  0  0  0  0  0
   25.4540   20.5970   13.7660 O   0  0  0  0  0  0  0  0  0  0  0  0
   24.4550   17.0880   13.1930 C   0  0  0  0  0  0  0  0  0  0  0  0
   23.7170   16.8960   14.1400 O   0  0  0  0  0  0  0  0  0  0  0  0
   23.8760   14.1500    7.2190 C   0  0  0  0  0  0  0  0  0  0  0  0
   24.0870   14.0810    5.9050 N   0  0  0  0  0  0  0  0  0  0  0  0
   24.8170   15.1880    5.6230 N   0  0  0  0  0  0  0  0  0  0  0  0
   24.4410   11.5040    4.1120 C   0  0  0  0  0  0  0  0  0  0  0  0
   24.3170   10.8470    5.2480 N   0  0  0  0  0  0  0  0  0  0  0  0
   24.7464    9.1845    8.6779 H   0  0  0  0  0  0  0  0  0  0  0  0
   23.8606    9.4192    7.1330 H   0  0  0  0  0  0  0  0  0  0  0  0
   25.4708    8.6230    7.1330 H   0  0  0  0  0  0  0  0  0  0  0  0
   25.0780   11.4666    8.1380 H   0  0  0  0  0  0  0  0  0  0  0  0
   26.5999   10.6264    7.6108 H   0  0  0  0  0  0  0  0  0  0  0  0
   26.9754   12.7988    5.7621 H   0  0  0  0  0  0  0  0  0  0  0  0
   26.2851   17.1421    3.2737 H   0  0  0  0  0  0  0  0  0  0  0  0
   26.6441   18.4874    5.4310 H   0  0  0  0  0  0  0  0  0  0  0  0
   22.5005   14.7430    9.5986 H   0  0  0  0  0  0  0  0  0  0  0  0
   22.3920   15.4602   12.0028 H   0  0  0  0  0  0  0  0  0  0  0  0
   26.2819   16.8328    9.1135 H   0  0  0  0  0  0  0  0  0  0  0  0
   27.2671   17.2215   11.9863 H   0  0  0  0  0  0  0  0  0  0  0  0
   26.5452   18.7085   11.4179 H   0  0  0  0  0  0  0  0  0  0  0  0
   27.3275   18.2165   14.2042 H   0  0  0  0  0  0  0  0  0  0  0  0
   24.7548   17.6992   15.7780 H   0  0  0  0  0  0  0  0  0  0  0  0
   26.0579   16.5050   15.4611 H   0  0  0  0  0  0  0  0  0  0  0  0
   26.2515   17.5737   17.7153 H   0  0  0  0  0  0  0  0  0  0  0  0
   27.6754   17.9037   16.6500 H   0  0  0  0  0  0  0  0  0  0  0  0
   26.5202   21.3315   15.9153 H   0  0  0  0  0  0  0  0  0  0  0  0
   23.3232   13.3851    7.7841 H   0  0  0  0  0  0  0  0  0  0  0  0
   23.7544   11.4151    3.2572 H   0  0  0  0  0  0  0  0  0  0  0  0
  1  2  1  0
  2  3  1  0
  3  4  2  0
  4  5  1  0
  5  6  1  0
  6  7  2  0
  6  8  2  0
  6  9  1  0
  9 10  1  0
 10 11  2  0
 11 12  1  0
 12 13  2  0
 13 14  1  0
 14 15  2  0
 15 16  1  0
 16 17  2  0
 17 18  1  0
 18 19  2  0
 19 20  1  0
 20 21  2  0
 20 22  1  0
 22 23  1  0
 23 24  1  0
 24 25  1  0
 25 26  1  0
 26 27  1  0
 27 28  2  0
 27 29  1  0
 29 30  1  0
 30 31  2  0
 23 32  1  0
 32 33  2  0
 15 34  1  0
 34 35  2  0
 35 36  1  0
  5 37  1  0
 37 38  2  0
 38  3  1  0
 36 10  1  0
 36 14  1  0
 21 16  1  0
 30 24  1  0
 32 19  1  0
  1 39  1  0
  1 40  1  0
  1 41  1  0
  2 42  1  0
  2 43  1  0
  4 44  1  0
 11 45  1  0
 12 46  1  0
 17 47  1  0
 18 48  1  0
 21 49  1  0
 22 50  1  0
 22 51  1  0
 24 52  1  6
 25 53  1  0
 25 54  1  0
 26 55  1  0
 26 56  1  0
 29 57  1  0
 34 58  1  0
 37 59  1  0
M  END
>  <meeko>  (346) 
{"is_sidechain": [true], "free_energy": -12.98, "intermolecular_energy": 0.0, "internal_energy": -12.98, "cluster_size": 20, "cluster_id": 1, "rank_in_cluster": 1}

>  <_RMSD_MCS_to_ref>  (346) 
0.9182949175268007

$$$$
ligand
     RDKit          3D

 55 59  0  0  0  0  0  0  0  0999 V2000
   24.8540    9.4020    7.6050 C   0  0  0  0  0  0  0  0  0  0  0  0
   25.5230   10.7550    7.4270 C   0  0  0  0  0  0  0  0  0  0  0  0
   25.2910   11.3220    6.0710 C   0  0  0  0  0  0  0  0  0  0  0  0
   26.1810   11.9650    5.2330 C   0  0  0  0  0  0  0  0  0  0  0  0
   25.4490   12.2370    4.1120 N   0  0  0  0  0  0  0  0  0  0  0  0
   25.9310   13.2310    2.8410 S   0  0  0  0  0  6  0  0  0  0  0  0
   27.0840   12.5680    2.2610 O   0  0  0  0  0  0  0  0  0  0  0  0
   24.7270   13.4710    2.0710 O   0  0  0  0  0  0  0  0  0  0  0  0
   26.4140   14.6340    3.5160 O   0  0  0  0  0  0  0  0  0  0  0  0
   26.1560   14.9230    4.8220 C   0  0  0  0  0  0  0  0  0  0  0  0
   27.0590   15.0500    5.8530 C   0  0  0  0  0  0  0  0  0  0  0  0
   26.7080   15.3420    7.1250 N   0  0  0  0  0  0  0  0  0  0  0  0
   25.3940   15.5170    7.3740 C   0  0  0  0  0  0  0  0  0  0  0  0
   24.9860   15.8380    8.7580 C   0  0  0  0  0  0  0  0  0  0  0  0
   23.7250   15.4200    9.2680 C   0  0  0  0  0  0  0  0  0  0  0  0
   23.3140   15.7120   10.5740 C   0  0  0  0  0  0  0  0  0  0  0  0
   24.1870   16.4270   11.3660 C   0  0  0  0  0  0  0  0  0  0  0  0
   25.4280   16.8570   10.9120 C   0  0  0  0  0  0  0  0  0  0  0  0
   25.8370   16.5720    9.6170 C   0  0  0  0  0  0  0  0  0  0  0  0
   26.1300   17.6200   11.9850 C   0  0  0  0  0  0  0  0  0  0  0  0
   25.2150   17.4960   13.1130 N   0  0  0  0  0  0  0  0  0  0  0  0
   25.3360   18.2780   14.3370 C   0  0  1  0  0  0  0  0  0  0  0  0
   26.3010   17.6490   15.3370 C   0  0  0  0  0  0  0  0  0  0  0  0
   26.3040   18.4670   16.6190 C   0  0  0  0  0  0  0  0  0  0  0  0
   26.6390   19.9140   16.3430 C   0  0  0  0  0  0  0  0  0  0  0  0
   27.2980   20.5970   17.1220 O   0  0  0  0  0  0  0  0  0  0  0  0
   26.1510   20.4450   15.1750 N   0  0  0  0  0  0  0  0  0  0  0  0
   25.7720   19.7270   14.0630 C   0  0  0  0  0  0  0  0  0  0  0  0
   25.8040   20.2470   12.9510 O   0  0  0  0  0  0  0  0  0  0  0  0
   24.0280   16.8710   12.7550 C   0  0  0  0  0  0  0  0  0  0  0  0
   23.0340   16.7060   13.4350 O   0  0  0  0  0  0  0  0  0  0  0  0
   24.4330   15.4120    6.4360 N   0  0  0  0  0  0  0  0  0  0  0  0
   24.8410   15.1190    5.1840 C   0  0  0  0  0  0  0  0  0  0  0  0
   24.1640   11.8470    4.3140 C   0  0  0  0  0  0  0  0  0  0  0  0
   24.0400   11.2660    5.4880 N   0  0  0  0  0  0  0  0  0  0  0  0
   24.7464    9.1845    8.6779 H   0  0  0  0  0  0  0  0  0  0  0  0
   23.8606    9.4192    7.1330 H   0  0  0  0  0  0  0  0  0  0  0  0
   25.4708    8.6230    7.1330 H   0  0  0  0  0  0  0  0  0  0  0  0
   25.1187   11.4515    8.1763 H   0  0  0  0  0  0  0  0  0  0  0  0
   26.6067   10.6155    7.5541 H   0  0  0  0  0  0  0  0  0  0  0  0
   27.2376   12.2035    5.4244 H   0  0  0  0  0  0  0  0  0  0  0  0
   28.1263   14.9057    5.6291 H   0  0  0  0  0  0  0  0  0  0  0  0
   23.0504   14.8481    8.6139 H   0  0  0  0  0  0  0  0  0  0  0  0
   22.3346   15.3844   10.9527 H   0  0  0  0  0  0  0  0  0  0  0  0
   26.8191   16.9155    9.2599 H   0  0  0  0  0  0  0  0  0  0  0  0
   27.1080   17.1724   12.2158 H   0  0  0  0  0  0  0  0  0  0  0  0
   26.3473   18.6627   11.7101 H   0  0  0  0  0  0  0  0  0  0  0  0
   24.3273   18.2860   14.7758 H   0  0  0  0  0  0  0  0  0  0  0  0
   25.9808   16.6203   15.5588 H   0  0  0  0  0  0  0  0  0  0  0  0
   27.3143   17.6325   14.9093 H   0  0  0  0  0  0  0  0  0  0  0  0
   25.3079   18.4114   17.0824 H   0  0  0  0  0  0  0  0  0  0  0  0
   27.0691   18.0549   17.2934 H   0  0  0  0  0  0  0  0  0  0  0  0
   26.0605   21.4699   15.1262 H   0  0  0  0  0  0  0  0  0  0  0  0
   24.0737   15.0308    4.4008 H   0  0  0  0  0  0  0  0  0  0  0  0
   23.3428   11.9958    3.5974 H   0  0  0  0  0  0  0  0  0  0  0  0
  1  2  1  0
  2  3  1  0
  3  4  2  0
  4  5  1  0
  5  6  1  0
  6  7  2  0
  6  8  2  0
  6  9  1  0
  9 10  1  0
 10 11  2  0
 11 12  1  0
 12 13  2  0
 13 14  1  0
 14 15  2  0
 15 16  1  0
 16 17  2  0
 17 18  1  0
 18 19  2  0
 18 20  1  0
 20 21  1  0
 21 22  1  0
 22 23  1  0
 23 24  1  0
 24 25  1  0
 25 26  2  0
 25 27  1  0
 27 28  1  0
 28 29  2  0
 21 30  1  0
 30 31  2  0
 13 32  1  0
 32 33  2  0
  5 34  1  0
 34 35  2  0
 35  3  1  0
 33 10  1  0
 19 14  1  0
 28 22  1  0
 30 17  1  0
  1 36  1  0
  1 37  1  0
  1 38  1  0
  2 39  1  0
  2 40  1  0
  4 41  1  0
 11 42  1  0
 15 43  1  0
 16 44  1  0
 19 45  1  0
 20 46  1  0
 20 47  1  0
 22 48  1  1
 23 49  1  0
 23 50  1  0
 24 51  1  0
 24 52  1  0
 27 53  1  0
 33 54  1  0
 34 55  1  0
M  END
>  <meeko>  (347) 
{"is_sidechain": [true], "free_energy": -12.97, "intermolecular_energy": 0.0, "internal_energy": -12.97, "cluster_size": 20, "cluster_id": 1, "rank_in_cluster": 1}

>  <_RMSD_MCS_to_ref>  (347) 
0.6665349036455451

$$$$
ligand
     RDKit          3D

 57 61  0  0  0  0  0  0  0  0999 V2000
   24.8540    9.4020    7.6050 C   0  0  0  0  0  0  0  0  0  0  0  0
   25.5230   10.7550    7.4270 C   0  0  0  0  0  0  0  0  0  0  0  0
   25.0570   11.4540    6.1980 C   0  0  0  0  0  0  0  0  0  0  0  0
   25.4810   12.6570    5.6690 C   0  0  0  0  0  0  0  0  0  0  0  0
   24.7420   12.7970    4.5290 N   0  0  0  0  0  0  0  0  0  0  0  0
   24.7110   14.1550    3.5520 S   0  0  0  0  0  6  0  0  0  0  0  0
   25.0620   13.7500    2.2080 O   0  0  0  0  0  0  0  0  0  0  0  0
   23.4530   14.8120    3.8600 O   0  0  0  0  0  0  0  0  0  0  0  0
   25.9060   15.2970    4.0040 C   0  0  0  0  0  0  0  0  0  0  0  0
   26.9150   15.8000    3.2120 C   0  0  0  0  0  0  0  0  0  0  0  0
   27.6310   16.6380    4.0090 N   0  0  0  0  0  0  0  0  0  0  0  0
   27.1500   16.7260    5.2620 N   0  0  0  0  0  0  0  0  0  0  0  0
   26.0870   15.8880    5.2750 C   0  0  0  0  0  0  0  0  0  0  0  0
   25.2900   15.6980    6.4990 C   0  0  0  0  0  0  0  0  0  0  0  0
   24.2480   15.0600    6.4810 O   0  0  0  0  0  0  0  0  0  0  0  0
   25.8530   16.3340    7.5860 N   0  0  0  0  0  0  0  0  0  0  0  0
   25.3750   16.4020    8.9070 C   0  0  0  0  0  0  0  0  0  0  0  0
   24.2340   15.7090    9.3610 C   0  0  0  0  0  0  0  0  0  0  0  0
   23.7940   15.8140   10.6900 C   0  0  0  0  0  0  0  0  0  0  0  0
   24.5130   16.6150   11.5550 C   0  0  0  0  0  0  0  0  0  0  0  0
   25.6390   17.2920   11.1000 C   0  0  0  0  0  0  0  0  0  0  0  0
   26.0910   17.2110    9.7950 C   0  0  0  0  0  0  0  0  0  0  0  0
   26.1930   18.0590   12.2200 C   0  0  0  0  0  0  0  0  0  0  0  0
   27.1340   18.8240   12.1320 O   0  0  0  0  0  0  0  0  0  0  0  0
   25.4290   17.7500   13.3360 N   0  0  0  0  0  0  0  0  0  0  0  0
   25.5010   18.4640   14.6060 C   0  0  1  0  0  0  0  0  0  0  0  0
   26.5940   17.9480   15.5410 C   0  0  0  0  0  0  0  0  0  0  0  0
   26.5410   18.7170   16.8510 C   0  0  0  0  0  0  0  0  0  0  0  0
   26.6750   20.2050   16.6200 C   0  0  0  0  0  0  0  0  0  0  0  0
   27.0780   20.9690   17.4910 O   0  0  0  0  0  0  0  0  0  0  0  0
   26.2460   20.6800   15.4060 N   0  0  0  0  0  0  0  0  0  0  0  0
   25.6510   19.9770   14.3840 C   0  0  0  0  0  0  0  0  0  0  0  0
   25.1840   20.5710   13.4120 O   0  0  0  0  0  0  0  0  0  0  0  0
   24.2740   16.9310   12.9920 C   0  0  0  0  0  0  0  0  0  0  0  0
   23.8730   11.7600    4.4300 C   0  0  0  0  0  0  0  0  0  0  0  0
   24.0530   10.9110    5.4210 N   0  0  0  0  0  0  0  0  0  0  0  0
   24.7464    9.1845    8.6779 H   0  0  0  0  0  0  0  0  0  0  0  0
   23.8606    9.4192    7.1330 H   0  0  0  0  0  0  0  0  0  0  0  0
   25.4708    8.6230    7.1330 H   0  0  0  0  0  0  0  0  0  0  0  0
   25.2922   11.3823    8.3007 H   0  0  0  0  0  0  0  0  0  0  0  0
   26.6058   10.5869    7.3305 H   0  0  0  0  0  0  0  0  0  0  0  0
   26.2392   13.3442    6.0727 H   0  0  0  0  0  0  0  0  0  0  0  0
   27.1029   15.5709    2.1527 H   0  0  0  0  0  0  0  0  0  0  0  0
   28.4608   17.1549    3.6846 H   0  0  0  0  0  0  0  0  0  0  0  0
   26.7410   16.8240    7.4064 H   0  0  0  0  0  0  0  0  0  0  0  0
   23.6764   15.0722    8.6585 H   0  0  0  0  0  0  0  0  0  0  0  0
   22.9001   15.2725   11.0332 H   0  0  0  0  0  0  0  0  0  0  0  0
   26.9834   17.7642    9.4670 H   0  0  0  0  0  0  0  0  0  0  0  0
   24.5441   18.2666   15.1114 H   0  0  0  0  0  0  0  0  0  0  0  0
   26.4343   16.8774   15.7370 H   0  0  0  0  0  0  0  0  0  0  0  0
   27.5780   18.0905   15.0704 H   0  0  0  0  0  0  0  0  0  0  0  0
   25.5792   18.5163   17.3457 H   0  0  0  0  0  0  0  0  0  0  0  0
   27.3794   18.3866   17.4818 H   0  0  0  0  0  0  0  0  0  0  0  0
   26.3868   21.6867   15.2395 H   0  0  0  0  0  0  0  0  0  0  0  0
   24.2423   16.0147   13.5997 H   0  0  0  0  0  0  0  0  0  0  0  0
   23.3126   17.4334   13.1745 H   0  0  0  0  0  0  0  0  0  0  0  0
   23.1230   11.6443    3.6337 H   0  0  0  0  0  0  0  0  0  0  0  0
  1  2  1  0
  2  3  1  0
  3  4  2  0
  4  5  1  0
  5  6  1  0
  6  7  2  0
  6  8  2  0
  6  9  1  0
  9 10  2  0
 10 11  1  0
 11 12  1  0
 12 13  2  0
 13 14  1  0
 14 15  2  0
 14 16  1  0
 16 17  1  0
 17 18  2  0
 18 19  1  0
 19 20  2  0
 20 21  1  0
 21 22  2  0
 21 23  1  0
 23 24  2  0
 23 25  1  0
 25 26  1  0
 26 27  1  0
 27 28  1  0
 28 29  1  0
 29 30  2  0
 29 31  1  0
 31 32  1  0
 32 33  2  0
 25 34  1  0
  5 35  1  0
 35 36  2  0
 36  3  1  0
 13  9  1  0
 22 17  1  0
 32 26  1  0
 34 20  1  0
  1 37  1  0
  1 38  1  0
  1 39  1  0
  2 40  1  0
  2 41  1  0
  4 42  1  0
 10 43  1  0
 11 44  1  0
 16 45  1  0
 18 46  1  0
 19 47  1  0
 22 48  1  0
 26 49  1  1
 27 50  1  0
 27 51  1  0
 28 52  1  0
 28 53  1  0
 31 54  1  0
 34 55  1  0
 34 56  1  0
 35 57  1  0
M  END
>  <meeko>  (348) 
{"is_sidechain": [true], "free_energy": -12.97, "intermolecular_energy": 0.0, "internal_energy": -12.97, "cluster_size": 16, "cluster_id": 1, "rank_in_cluster": 1}

>  <_RMSD_MCS_to_ref>  (348) 
0.5892170652654244

$$$$
ligand
     RDKit          3D

 60 64  0  0  0  0  0  0  0  0999 V2000
   24.8710    9.6160    7.7820 C   0  0  0  0  0  0  0  0  0  0  0  0
   25.4240   10.9650    7.3490 C   0  0  0  0  0  0  0  0  0  0  0  0
   26.9060   11.0270    7.4680 C   0  0  0  0  0  0  0  0  0  0  0  0
   27.7120   12.1210    7.7160 C   0  0  0  0  0  0  0  0  0  0  0  0
   28.9760   11.6050    7.7460 N   0  0  0  0  0  0  0  0  0  0  0  0
   30.3990   12.4970    7.8190 S   0  0  0  0  0  6  0  0  0  0  0  0
   30.2500   13.3600    8.9790 O   0  0  0  0  0  0  0  0  0  0  0  0
   31.4820   11.5400    7.7060 O   0  0  0  0  0  0  0  0  0  0  0  0
   30.3500   13.4880    6.3480 C   0  0  0  0  0  0  0  0  0  0  0  0
   31.2810   13.1650    5.3430 C   0  0  0  0  0  0  0  0  0  0  0  0
   31.2810   13.8660    4.1430 C   0  0  0  0  0  0  0  0  0  0  0  0
   30.3600   14.8870    3.9460 C   0  0  0  0  0  0  0  0  0  0  0  0
   29.4460   15.2200    4.9540 C   0  0  0  0  0  0  0  0  0  0  0  0
   29.4280   14.5400    6.1790 C   0  0  0  0  0  0  0  0  0  0  0  0
   28.5200   14.8910    7.2130 N   0  0  0  0  0  0  0  0  0  0  0  0
   27.1920   15.2610    7.0950 C   0  0  0  0  0  0  0  0  0  0  0  0
   26.5520   15.3950    6.0600 O   0  0  0  0  0  0  0  0  0  0  0  0
   26.5000   15.5430    8.3860 C   0  0  0  0  0  0  0  0  0  0  0  0
   25.2840   14.8710    8.6550 C   0  0  0  0  0  0  0  0  0  0  0  0
   24.5880   15.0800    9.8510 C   0  0  0  0  0  0  0  0  0  0  0  0
   25.1330   15.9530   10.7750 C   0  0  0  0  0  0  0  0  0  0  0  0
   26.3400   16.5950   10.5060 C   0  0  0  0  0  0  0  0  0  0  0  0
   27.0460   16.4180    9.3310 C   0  0  0  0  0  0  0  0  0  0  0  0
   26.6770   17.4340   11.6600 C   0  0  0  0  0  0  0  0  0  0  0  0
   27.6390   18.1750   11.7080 O   0  0  0  0  0  0  0  0  0  0  0  0
   25.7010   17.2130   12.6180 N   0  0  0  0  0  0  0  0  0  0  0  0
   25.5310   18.0210   13.8210 C   0  0  1  0  0  0  0  0  0  0  0  0
   26.2700   17.4730   15.0410 C   0  0  0  0  0  0  0  0  0  0  0  0
   25.9750   18.3540   16.2460 C   0  0  0  0  0  0  0  0  0  0  0  0
   26.3510   19.7930   15.9780 C   0  0  0  0  0  0  0  0  0  0  0  0
   26.6000   20.5830   16.8840 O   0  0  0  0  0  0  0  0  0  0  0  0
   26.3190   20.2050   14.6690 N   0  0  0  0  0  0  0  0  0  0  0  0
   25.9240   19.4850   13.5650 C   0  0  0  0  0  0  0  0  0  0  0  0
   25.8030   20.0380   12.4730 O   0  0  0  0  0  0  0  0  0  0  0  0
   24.6200   16.3760   12.1110 C   0  0  0  0  0  0  0  0  0  0  0  0
   28.9210   10.2750    7.4800 C   0  0  0  0  0  0  0  0  0  0  0  0
   27.6740    9.8890    7.3120 N   0  0  0  0  0  0  0  0  0  0  0  0
   24.8497    9.5640    8.8806 H   0  0  0  0  0  0  0  0  0  0  0  0
   23.8507    9.4948    7.3893 H   0  0  0  0  0  0  0  0  0  0  0  0
   25.5127    8.8135    7.3893 H   0  0  0  0  0  0  0  0  0  0  0  0
   25.1447   11.1426    6.3000 H   0  0  0  0  0  0  0  0  0  0  0  0
   24.9987   11.7336    8.0110 H   0  0  0  0  0  0  0  0  0  0  0  0
   27.4058   13.1681    7.8570 H   0  0  0  0  0  0  0  0  0  0  0  0
   32.0092   12.3571    5.5075 H   0  0  0  0  0  0  0  0  0  0  0  0
   32.0054   13.6140    3.3545 H   0  0  0  0  0  0  0  0  0  0  0  0
   30.3483   15.4370    2.9934 H   0  0  0  0  0  0  0  0  0  0  0  0
   28.7263   16.0335    4.7800 H   0  0  0  0  0  0  0  0  0  0  0  0
   28.8974   14.8671    8.1711 H   0  0  0  0  0  0  0  0  0  0  0  0
   24.8781   14.1710    7.9098 H   0  0  0  0  0  0  0  0  0  0  0  0
   23.6363   14.5656   10.0502 H   0  0  0  0  0  0  0  0  0  0  0  0
   27.9954   16.9421    9.1471 H   0  0  0  0  0  0  0  0  0  0  0  0
   24.4589   17.9710   14.0623 H   0  0  0  0  0  0  0  0  0  0  0  0
   25.9316   16.4464   15.2449 H   0  0  0  0  0  0  0  0  0  0  0  0
   27.3523   17.4682   14.8445 H   0  0  0  0  0  0  0  0  0  0  0  0
   24.9003   18.3008   16.4745 H   0  0  0  0  0  0  0  0  0  0  0  0
   26.5715   17.9914   17.0961 H   0  0  0  0  0  0  0  0  0  0  0  0
   26.6285   21.1712   14.4915 H   0  0  0  0  0  0  0  0  0  0  0  0
   24.4509   15.5074   12.7643 H   0  0  0  0  0  0  0  0  0  0  0  0
   23.6514   16.8951   12.0627 H   0  0  0  0  0  0  0  0  0  0  0  0
   29.7965    9.6123    7.4141 H   0  0  0  0  0  0  0  0  0  0  0  0
  1  2  1  0
  2  3  1  0
  3  4  2  0
  4  5  1  0
  5  6  1  0
  6  7  2  0
  6  8  2  0
  6  9  1  0
  9 10  2  0
 10 11  1  0
 11 12  2  0
 12 13  1  0
 13 14  2  0
 14 15  1  0
 15 16  1  0
 16 17  2  0
 16 18  1  0
 18 19  2  0
 19 20  1  0
 20 21  2  0
 21 22  1  0
 22 23  2  0
 22 24  1  0
 24 25  2  0
 24 26  1  0
 26 27  1  0
 27 28  1  0
 28 29  1  0
 29 30  1  0
 30 31  2  0
 30 32  1  0
 32 33  1  0
 33 34  2  0
 26 35  1  0
  5 36  1  0
 36 37  2  0
 37  3  1  0
 14  9  1  0
 23 18  1  0
 33 27  1  0
 35 21  1  0
  1 38  1  0
  1 39  1  0
  1 40  1  0
  2 41  1  0
  2 42  1  0
  4 43  1  0
 10 44  1  0
 11 45  1  0
 12 46  1  0
 13 47  1  0
 15 48  1  0
 19 49  1  0
 20 50  1  0
 23 51  1  0
 27 52  1  1
 28 53  1  0
 28 54  1  0
 29 55  1  0
 29 56  1  0
 32 57  1  0
 35 58  1  0
 35 59  1  0
 36 60  1  0
M  END
>  <meeko>  (349) 
{"is_sidechain": [true], "free_energy": -12.96, "intermolecular_energy": 0.0, "internal_energy": -12.96, "cluster_size": 20, "cluster_id": 1, "rank_in_cluster": 1}

>  <_RMSD_MCS_to_ref>  (349) 
1.2049546095646553

$$$$
ligand
     RDKit          3D

 53 57  0  0  0  0  0  0  0  0999 V2000
   24.8710    9.6160    7.7820 C   0  0  0  0  0  0  0  0  0  0  0  0
   25.4240   10.9650    7.3490 C   0  0  0  0  0  0  0  0  0  0  0  0
   26.9120   10.9810    7.3360 C   0  0  0  0  0  0  0  0  0  0  0  0
   27.7750   11.9140    7.8780 C   0  0  0  0  0  0  0  0  0  0  0  0
   29.0170   11.4130    7.6120 N   0  0  0  0  0  0  0  0  0  0  0  0
   30.4840   12.0850    8.1080 S   0  0  0  0  0  6  0  0  0  0  0  0
   30.5930   11.7990    9.5290 O   0  0  0  0  0  0  0  0  0  0  0  0
   31.4450   11.5200    7.1750 O   0  0  0  0  0  0  0  0  0  0  0  0
   30.4820   13.6970    7.8820 O   0  0  0  0  0  0  0  0  0  0  0  0
   29.2990   14.3870    7.8970 C   0  0  0  0  0  0  0  0  0  0  0  0
   28.6230   14.5370    6.7020 C   0  0  0  0  0  0  0  0  0  0  0  0
   27.3860   15.1740    6.7290 C   0  0  0  0  0  0  0  0  0  0  0  0
   26.8570   15.6170    7.9500 C   0  0  0  0  0  0  0  0  0  0  0  0
   25.6090   16.2510    8.0450 C   0  0  0  0  0  0  0  0  0  0  0  0
   25.1190   16.6550    9.2880 C   0  0  0  0  0  0  0  0  0  0  0  0
   25.8640   16.4360   10.4510 C   0  0  0  0  0  0  0  0  0  0  0  0
   25.3370   16.8490   11.7410 C   0  0  0  0  0  0  0  0  0  0  0  0
   25.9520   17.6560   12.6740 C   0  0  0  0  0  0  0  0  0  0  0  0
   25.0570   17.7130   13.7020 N   0  0  0  0  0  0  0  0  0  0  0  0
   25.1760   18.4600   14.9410 C   0  0  1  0  0  0  0  0  0  0  0  0
   26.1370   17.7990   15.9340 C   0  0  0  0  0  0  0  0  0  0  0  0
   26.2470   18.6520   17.1870 C   0  0  0  0  0  0  0  0  0  0  0  0
   26.6940   20.0550   16.8510 C   0  0  0  0  0  0  0  0  0  0  0  0
   27.2150   20.7940   17.6800 O   0  0  0  0  0  0  0  0  0  0  0  0
   26.4030   20.4990   15.5860 N   0  0  0  0  0  0  0  0  0  0  0  0
   25.5790   19.8980   14.6600 C   0  0  0  0  0  0  0  0  0  0  0  0
   25.1340   20.5570   13.7220 O   0  0  0  0  0  0  0  0  0  0  0  0
   23.9450   17.0110   13.4220 N   0  0  0  0  0  0  0  0  0  0  0  0
   24.1080   16.4720   12.2210 N   0  0  0  0  0  0  0  0  0  0  0  0
   27.1120   15.8090   10.3370 C   0  0  0  0  0  0  0  0  0  0  0  0
   27.6200   15.4000    9.1130 C   0  0  0  0  0  0  0  0  0  0  0  0
   28.8190   14.7990    9.0810 N   0  0  0  0  0  0  0  0  0  0  0  0
   28.8910   10.2540    6.9130 C   0  0  0  0  0  0  0  0  0  0  0  0
   27.6190    9.9570    6.7320 N   0  0  0  0  0  0  0  0  0  0  0  0
   24.8497    9.5640    8.8806 H   0  0  0  0  0  0  0  0  0  0  0  0
   23.8507    9.4948    7.3893 H   0  0  0  0  0  0  0  0  0  0  0  0
   25.5127    8.8135    7.3893 H   0  0  0  0  0  0  0  0  0  0  0  0
   25.0578   11.1902    6.3365 H   0  0  0  0  0  0  0  0  0  0  0  0
   25.0831   11.7195    8.0732 H   0  0  0  0  0  0  0  0  0  0  0  0
   27.5200   12.8463    8.4032 H   0  0  0  0  0  0  0  0  0  0  0  0
   29.0489   14.1647    5.7586 H   0  0  0  0  0  0  0  0  0  0  0  0
   26.8250   15.3295    5.7957 H   0  0  0  0  0  0  0  0  0  0  0  0
   25.0147   16.4303    7.1369 H   0  0  0  0  0  0  0  0  0  0  0  0
   24.1387   17.1497    9.3533 H   0  0  0  0  0  0  0  0  0  0  0  0
   26.9366   18.1417   12.6055 H   0  0  0  0  0  0  0  0  0  0  0  0
   24.1849   18.4598   15.4181 H   0  0  0  0  0  0  0  0  0  0  0  0
   25.7566   16.8024   16.2025 H   0  0  0  0  0  0  0  0  0  0  0  0
   27.1300   17.7033   15.4706 H   0  0  0  0  0  0  0  0  0  0  0  0
   25.2643   18.6961   17.6792 H   0  0  0  0  0  0  0  0  0  0  0  0
   26.9935   18.1976   17.8551 H   0  0  0  0  0  0  0  0  0  0  0  0
   26.8507   21.3802   15.2962 H   0  0  0  0  0  0  0  0  0  0  0  0
   27.7069   15.6359   11.2460 H   0  0  0  0  0  0  0  0  0  0  0  0
   29.7335    9.6478    6.5487 H   0  0  0  0  0  0  0  0  0  0  0  0
  1  2  1  0
  2  3  1  0
  3  4  2  0
  4  5  1  0
  5  6  1  0
  6  7  2  0
  6  8  2  0
  6  9  1  0
  9 10  1  0
 10 11  2  0
 11 12  1  0
 12 13  2  0
 13 14  1  0
 14 15  2  0
 15 16  1  0
 16 17  1  0
 17 18  2  0
 18 19  1  0
 19 20  1  0
 20 21  1  0
 21 22  1  0
 22 23  1  0
 23 24  2  0
 23 25  1  0
 25 26  1  0
 26 27  2  0
 19 28  1  0
 28 29  2  0
 16 30  2  0
 30 31  1  0
 31 32  2  0
  5 33  1  0
 33 34  2  0
 34  3  1  0
 32 10  1  0
 31 13  1  0
 29 17  1  0
 26 20  1  0
  1 35  1  0
  1 36  1  0
  1 37  1  0
  2 38  1  0
  2 39  1  0
  4 40  1  0
 11 41  1  0
 12 42  1  0
 14 43  1  0
 15 44  1  0
 18 45  1  0
 20 46  1  1
 21 47  1  0
 21 48  1  0
 22 49  1  0
 22 50  1  0
 25 51  1  0
 30 52  1  0
 33 53  1  0
M  END
>  <meeko>  (350) 
{"is_sidechain": [true], "free_energy": -12.96, "intermolecular_energy": 0.0, "internal_energy": -12.96, "cluster_size": 20, "cluster_id": 1, "rank_in_cluster": 1}

>  <_RMSD_MCS_to_ref>  (350) 
0.6434144163065597

$$$$
ligand
     RDKit          3D

 56 60  0  0  0  0  0  0  0  0999 V2000
   24.8540    9.4020    7.6050 C   0  0  0  0  0  0  0  0  0  0  0  0
   25.5230   10.7550    7.4270 C   0  0  0  0  0  0  0  0  0  0  0  0
   25.2010   11.3720    6.1120 C   0  0  0  0  0  0  0  0  0  0  0  0
   25.8050   12.4450    5.4840 C   0  0  0  0  0  0  0  0  0  0  0  0
   25.1190   12.5730    4.3110 N   0  0  0  0  0  0  0  0  0  0  0  0
   25.4190   13.7290    3.1210 S   0  0  0  0  0  6  0  0  0  0  0  0
   24.1620   13.9330    2.4220 O   0  0  0  0  0  0  0  0  0  0  0  0
   26.5670   13.1880    2.4090 O   0  0  0  0  0  0  0  0  0  0  0  0
   25.9010   15.1170    3.8170 O   0  0  0  0  0  0  0  0  0  0  0  0
   25.5930   15.3710    5.1280 C   0  0  0  0  0  0  0  0  0  0  0  0
   26.4780   16.1570    5.8450 C   0  0  0  0  0  0  0  0  0  0  0  0
   26.2080   16.4000    7.1910 C   0  0  0  0  0  0  0  0  0  0  0  0
   25.0700   15.8490    7.7970 C   0  0  0  0  0  0  0  0  0  0  0  0
   24.7520   16.0840    9.2140 C   0  0  0  0  0  0  0  0  0  0  0  0
   23.5890   15.5170    9.7990 C   0  0  0  0  0  0  0  0  0  0  0  0
   23.2550   15.7250   11.1460 C   0  0  0  0  0  0  0  0  0  0  0  0
   24.0990   16.5060   11.9110 C   0  0  0  0  0  0  0  0  0  0  0  0
   25.2390   17.0640   11.3420 C   0  0  0  0  0  0  0  0  0  0  0  0
   25.5870   16.8770   10.0160 C   0  0  0  0  0  0  0  0  0  0  0  0
   25.9300   17.8410   12.3750 C   0  0  0  0  0  0  0  0  0  0  0  0
   26.9180   18.5220   12.1780 O   0  0  0  0  0  0  0  0  0  0  0  0
   25.2290   17.6540   13.5560 N   0  0  0  0  0  0  0  0  0  0  0  0
   25.4460   18.4310   14.7730 C   0  0  1  0  0  0  0  0  0  0  0  0
   26.5680   17.8880   15.6570 C   0  0  0  0  0  0  0  0  0  0  0  0
   26.6650   18.7310   16.9190 C   0  0  0  0  0  0  0  0  0  0  0  0
   26.8840   20.1890   16.5880 C   0  0  0  0  0  0  0  0  0  0  0  0
   27.4000   20.9700   17.3830 O   0  0  0  0  0  0  0  0  0  0  0  0
   26.4010   20.6270   15.3810 N   0  0  0  0  0  0  0  0  0  0  0  0
   25.6830   19.9150   14.4490 C   0  0  0  0  0  0  0  0  0  0  0  0
   25.1860   20.4850   13.4780 O   0  0  0  0  0  0  0  0  0  0  0  0
   23.9920   16.9160   13.3400 C   0  0  0  0  0  0  0  0  0  0  0  0
   24.2620   15.0600    6.9770 C   0  0  0  0  0  0  0  0  0  0  0  0
   24.4990   14.8080    5.6650 N   0  0  0  0  0  0  0  0  0  0  0  0
   24.1510   11.6240    4.2500 C   0  0  0  0  0  0  0  0  0  0  0  0
   24.1740   10.8720    5.3340 N   0  0  0  0  0  0  0  0  0  0  0  0
   24.7464    9.1845    8.6779 H   0  0  0  0  0  0  0  0  0  0  0  0
   23.8606    9.4192    7.1330 H   0  0  0  0  0  0  0  0  0  0  0  0
   25.4708    8.6230    7.1330 H   0  0  0  0  0  0  0  0  0  0  0  0
   25.1807   11.4276    8.2273 H   0  0  0  0  0  0  0  0  0  0  0  0
   26.6114   10.6022    7.4711 H   0  0  0  0  0  0  0  0  0  0  0  0
   26.6453   13.0554    5.8463 H   0  0  0  0  0  0  0  0  0  0  0  0
   27.3727   16.5797    5.3646 H   0  0  0  0  0  0  0  0  0  0  0  0
   26.8919   17.0278    7.7811 H   0  0  0  0  0  0  0  0  0  0  0  0
   22.9289   14.8950    9.1766 H   0  0  0  0  0  0  0  0  0  0  0  0
   22.3478   15.2792   11.5798 H   0  0  0  0  0  0  0  0  0  0  0  0
   26.4953   17.3383    9.6009 H   0  0  0  0  0  0  0  0  0  0  0  0
   24.5188   18.3335   15.3568 H   0  0  0  0  0  0  0  0  0  0  0  0
   26.3502   16.8444   15.9279 H   0  0  0  0  0  0  0  0  0  0  0  0
   27.5217   17.9309   15.1105 H   0  0  0  0  0  0  0  0  0  0  0  0
   25.7308   18.6295   17.4908 H   0  0  0  0  0  0  0  0  0  0  0  0
   27.5224   18.3758   17.5096 H   0  0  0  0  0  0  0  0  0  0  0  0
   26.6005   21.6093   15.1438 H   0  0  0  0  0  0  0  0  0  0  0  0
   23.9332   16.0386   14.0009 H   0  0  0  0  0  0  0  0  0  0  0  0
   23.0890   17.5051   13.5582 H   0  0  0  0  0  0  0  0  0  0  0  0
   23.3660   14.6087    7.4281 H   0  0  0  0  0  0  0  0  0  0  0  0
   23.4464   11.4992    3.4146 H   0  0  0  0  0  0  0  0  0  0  0  0
  1  2  1  0
  2  3  1  0
  3  4  2  0
  4  5  1  0
  5  6  1  0
  6  7  2  0
  6  8  2  0
  6  9  1  0
  9 10  1  0
 10 11  2  0
 11 12  1  0
 12 13  2  0
 13 14  1  0
 14 15  2  0
 15 16  1  0
 16 17  2  0
 17 18  1  0
 18 19  2  0
 18 20  1  0
 20 21  2  0
 20 22  1  0
 22 23  1  0
 23 24  1  0
 24 25  1  0
 25 26  1  0
 26 27  2  0
 26 28  1  0
 28 29  1  0
 29 30  2  0
 22 31  1  0
 13 32  1  0
 32 33  2  0
  5 34  1  0
 34 35  2  0
 35  3  1  0
 33 10  1  0
 19 14  1  0
 29 23  1  0
 31 17  1  0
  1 36  1  0
  1 37  1  0
  1 38  1  0
  2 39  1  0
  2 40  1  0
  4 41  1  0
 11 42  1  0
 12 43  1  0
 15 44  1  0
 16 45  1  0
 19 46  1  0
 23 47  1  1
 24 48  1  0
 24 49  1  0
 25 50  1  0
 25 51  1  0
 28 52  1  0
 31 53  1  0
 31 54  1  0
 32 55  1  0
 34 56  1  0
M  END
>  <meeko>  (351) 
{"is_sidechain": [true], "free_energy": -12.95, "intermolecular_energy": 0.0, "internal_energy": -12.95, "cluster_size": 20, "cluster_id": 1, "rank_in_cluster": 1}

>  <_RMSD_MCS_to_ref>  (351) 
0.5241951502594765

$$$$
ligand
     RDKit          3D

 61 65  0  0  0  0  0  0  0  0999 V2000
   24.8540    9.4020    7.6050 C   0  0  0  0  0  0  0  0  0  0  0  0
   25.5230   10.7550    7.4270 C   0  0  0  0  0  0  0  0  0  0  0  0
   25.0140   11.4800    6.2310 C   0  0  0  0  0  0  0  0  0  0  0  0
   25.2510   12.7840    5.8410 C   0  0  0  0  0  0  0  0  0  0  0  0
   24.5290   12.9250    4.6900 N   0  0  0  0  0  0  0  0  0  0  0  0
   24.5910   14.2380    3.6450 S   0  0  0  0  0  6  0  0  0  0  0  0
   24.7150   13.6810    2.3090 O   0  0  0  0  0  0  0  0  0  0  0  0
   23.4820   15.0910    4.0230 O   0  0  0  0  0  0  0  0  0  0  0  0
   26.1140   15.0340    4.0710 C   0  0  0  0  0  0  0  0  0  0  0  0
   27.2690   14.7670    3.3340 C   0  0  0  0  0  0  0  0  0  0  0  0
   28.4670   15.3770    3.6990 C   0  0  0  0  0  0  0  0  0  0  0  0
   28.5160   16.2330    4.8040 C   0  0  0  0  0  0  0  0  0  0  0  0
   27.3620   16.4940    5.5590 C   0  0  0  0  0  0  0  0  0  0  0  0
   27.4240   17.3750    6.7890 C   0  0  0  0  0  0  0  0  0  0  0  0
   26.4570   16.9310    7.8020 C   0  0  0  0  0  0  0  0  0  0  0  0
   25.6160   16.5050    8.5470 C   0  0  0  0  0  0  0  0  0  0  0  0
   24.6550   16.1040    9.5240 C   0  0  0  0  0  0  0  0  0  0  0  0
   23.5260   15.3570    9.1680 C   0  0  0  0  0  0  0  0  0  0  0  0
   22.5620   15.0010   10.1330 C   0  0  0  0  0  0  0  0  0  0  0  0
   22.7140   15.3920   11.4660 C   0  0  0  0  0  0  0  0  0  0  0  0
   23.8410   16.1240   11.7900 C   0  0  0  0  0  0  0  0  0  0  0  0
   24.8050   16.4770   10.8490 C   0  0  0  0  0  0  0  0  0  0  0  0
   25.8810   17.2770   11.5020 C   0  0  0  0  0  0  0  0  0  0  0  0
   25.4940   17.2550   12.9060 N   0  0  0  0  0  0  0  0  0  0  0  0
   26.1720   18.1110   13.8740 C   0  0  2  0  0  0  0  0  0  0  0  0
   25.8750   17.7630   15.3330 C   0  0  0  0  0  0  0  0  0  0  0  0
   26.7240   18.6420   16.2380 C   0  0  0  0  0  0  0  0  0  0  0  0
   26.4810   20.1080   15.9620 C   0  0  0  0  0  0  0  0  0  0  0  0
   26.6770   20.9740   16.8100 O   0  0  0  0  0  0  0  0  0  0  0  0
   26.0940   20.4400   14.6880 N   0  0  0  0  0  0  0  0  0  0  0  0
   25.8870   19.5990   13.6180 C   0  0  0  0  0  0  0  0  0  0  0  0
   25.5820   20.0600   12.5190 O   0  0  0  0  0  0  0  0  0  0  0  0
   24.2490   16.6730   13.0890 C   0  0  0  0  0  0  0  0  0  0  0  0
   23.5800   16.6110   14.1010 O   0  0  0  0  0  0  0  0  0  0  0  0
   26.1520   15.8920    5.1760 C   0  0  0  0  0  0  0  0  0  0  0  0
   23.9330   11.7430    4.3910 C   0  0  0  0  0  0  0  0  0  0  0  0
   24.1990   10.8440    5.3160 N   0  0  0  0  0  0  0  0  0  0  0  0
   24.7464    9.1845    8.6779 H   0  0  0  0  0  0  0  0  0  0  0  0
   23.8606    9.4192    7.1330 H   0  0  0  0  0  0  0  0  0  0  0  0
   25.4708    8.6230    7.1330 H   0  0  0  0  0  0  0  0  0  0  0  0
   25.3297   11.3663    8.3208 H   0  0  0  0  0  0  0  0  0  0  0  0
   26.6002   10.5834    7.2852 H   0  0  0  0  0  0  0  0  0  0  0  0
   25.8775   13.5363    6.3424 H   0  0  0  0  0  0  0  0  0  0  0  0
   27.2336   14.0821    2.4740 H   0  0  0  0  0  0  0  0  0  0  0  0
   29.3792   15.1845    3.1151 H   0  0  0  0  0  0  0  0  0  0  0  0
   29.4686   16.7064    5.0842 H   0  0  0  0  0  0  0  0  0  0  0  0
   28.4375   17.3289    7.2141 H   0  0  0  0  0  0  0  0  0  0  0  0
   27.1766   18.4058    6.4954 H   0  0  0  0  0  0  0  0  0  0  0  0
   23.3893   15.0439    8.1224 H   0  0  0  0  0  0  0  0  0  0  0  0
   21.6831   14.4107    9.8344 H   0  0  0  0  0  0  0  0  0  0  0  0
   21.9659   15.1276   12.2279 H   0  0  0  0  0  0  0  0  0  0  0  0
   26.8661   16.8100   11.3554 H   0  0  0  0  0  0  0  0  0  0  0  0
   25.9764   18.2936   11.0929 H   0  0  0  0  0  0  0  0  0  0  0  0
   27.2429   17.9154   13.7164 H   0  0  0  0  0  0  0  0  0  0  0  0
   24.8097   17.9381   15.5437 H   0  0  0  0  0  0  0  0  0  0  0  0
   26.1119   16.7046   15.5167 H   0  0  0  0  0  0  0  0  0  0  0  0
   26.4704   18.4277   17.2867 H   0  0  0  0  0  0  0  0  0  0  0  0
   27.7838   18.4221   16.0420 H   0  0  0  0  0  0  0  0  0  0  0  0
   25.9392   21.4427   14.5103 H   0  0  0  0  0  0  0  0  0  0  0  0
   25.2330   16.0952    5.7454 H   0  0  0  0  0  0  0  0  0  0  0  0
   23.3139   11.5611    3.5001 H   0  0  0  0  0  0  0  0  0  0  0  0
  1  2  1  0
  2  3  1  0
  3  4  2  0
  4  5  1  0
  5  6  1  0
  6  7  2  0
  6  8  2  0
  6  9  1  0
  9 10  2  0
 10 11  1  0
 11 12  2  0
 12 13  1  0
 13 14  1  0
 14 15  1  0
 15 16  3  0
 16 17  1  0
 17 18  2  0
 18 19  1  0
 19 20  2  0
 20 21  1  0
 21 22  2  0
 22 23  1  0
 23 24  1  0
 24 25  1  0
 25 26  1  0
 26 27  1  0
 27 28  1  0
 28 29  2  0
 28 30  1  0
 30 31  1  0
 31 32  2  0
 24 33  1  0
 33 34  2  0
 13 35  2  0
  5 36  1  0
 36 37  2  0
 37  3  1  0
 35  9  1  0
 22 17  1  0
 31 25  1  0
 33 21  1  0
  1 38  1  0
  1 39  1  0
  1 40  1  0
  2 41  1  0
  2 42  1  0
  4 43  1  0
 10 44  1  0
 11 45  1  0
 12 46  1  0
 14 47  1  0
 14 48  1  0
 18 49  1  0
 19 50  1  0
 20 51  1  0
 23 52  1  0
 23 53  1  0
 25 54  1  1
 26 55  1  0
 26 56  1  0
 27 57  1  0
 27 58  1  0
 30 59  1  0
 35 60  1  0
 36 61  1  0
M  END
>  <meeko>  (352) 
{"is_sidechain": [true], "free_energy": -12.95, "intermolecular_energy": 0.0, "internal_energy": -12.95, "cluster_size": 3, "cluster_id": 2, "rank_in_cluster": 1}

>  <_RMSD_MCS_to_ref>  (352) 
1.051015752075634

$$$$
ligand
     RDKit          3D

 58 63  0  0  0  0  0  0  0  0999 V2000
   24.8540    9.4020    7.6050 C   0  0  0  0  0  0  0  0  0  0  0  0
   25.5230   10.7550    7.4270 C   0  0  0  0  0  0  0  0  0  0  0  0
   25.0350   11.4700    6.2160 C   0  0  0  0  0  0  0  0  0  0  0  0
   25.3260   12.7510    5.7900 C   0  0  0  0  0  0  0  0  0  0  0  0
   24.6060   12.8900    4.6370 N   0  0  0  0  0  0  0  0  0  0  0  0
   24.6290   14.2360    3.6190 S   0  0  0  0  0  6  0  0  0  0  0  0
   23.4050   14.9440    3.9670 O   0  0  0  0  0  0  0  0  0  0  0  0
   24.7890   13.6910    2.2800 O   0  0  0  0  0  0  0  0  0  0  0  0
   25.9860   15.2460    3.9910 C   0  0  0  0  0  0  0  0  0  0  0  0
   26.8890   15.4970    3.0170 C   0  0  0  0  0  0  0  0  0  0  0  0
   28.0650   16.3200    3.2660 C   0  0  0  0  0  0  0  0  0  0  0  0
   28.2520   16.8280    4.4960 C   0  0  0  0  0  0  0  0  0  0  0  0
   27.3200   16.5530    5.4920 N   0  0  0  0  0  0  0  0  0  0  0  0
   27.3000   16.9620    6.8030 C   0  0  0  0  0  0  0  0  0  0  0  0
   26.1560   16.4170    7.3470 C   0  0  0  0  0  0  0  0  0  0  0  0
   25.6740   16.5730    8.7120 C   0  0  0  0  0  0  0  0  0  0  0  0
   24.4320   15.9840    9.0760 C   0  0  0  0  0  0  0  0  0  0  0  0
   23.9060   16.1050   10.3680 C   0  0  0  0  0  0  0  0  0  0  0  0
   24.6490   16.8180   11.2820 C   0  0  0  0  0  0  0  0  0  0  0  0
   25.8600   17.3910   10.9450 C   0  0  0  0  0  0  0  0  0  0  0  0
   26.4000   17.2910    9.6740 C   0  0  0  0  0  0  0  0  0  0  0  0
   26.3720   18.0700   12.1320 C   0  0  0  0  0  0  0  0  0  0  0  0
   27.4010   18.7180   12.1530 O   0  0  0  0  0  0  0  0  0  0  0  0
   25.4700   17.8430   13.1360 N   0  0  0  0  0  0  0  0  0  0  0  0
   25.5130   18.4580   14.4530 C   0  0  1  0  0  0  0  0  0  0  0  0
   26.5380   17.8410   15.4010 C   0  0  0  0  0  0  0  0  0  0  0  0
   26.4590   18.5430   16.7480 C   0  0  0  0  0  0  0  0  0  0  0  0
   26.6640   20.0340   16.6040 C   0  0  0  0  0  0  0  0  0  0  0  0
   27.1450   20.7190   17.4990 O   0  0  0  0  0  0  0  0  0  0  0  0
   26.2330   20.6020   15.4300 N   0  0  0  0  0  0  0  0  0  0  0  0
   25.7730   19.9610   14.3010 C   0  0  0  0  0  0  0  0  0  0  0  0
   25.5470   20.5960   13.2730 O   0  0  0  0  0  0  0  0  0  0  0  0
   24.3890   17.1340   12.6850 C   0  0  0  0  0  0  0  0  0  0  0  0
   23.3880   16.8060   13.2920 O   0  0  0  0  0  0  0  0  0  0  0  0
   25.4810   15.6800    6.4000 N   0  0  0  0  0  0  0  0  0  0  0  0
   26.1840   15.7750    5.2940 C   0  0  0  0  0  0  0  0  0  0  0  0
   23.9450   11.7320    4.3810 C   0  0  0  0  0  0  0  0  0  0  0  0
   24.1730   10.8480    5.3320 N   0  0  0  0  0  0  0  0  0  0  0  0
   24.7464    9.1845    8.6779 H   0  0  0  0  0  0  0  0  0  0  0  0
   23.8606    9.4192    7.1330 H   0  0  0  0  0  0  0  0  0  0  0  0
   25.4708    8.6230    7.1330 H   0  0  0  0  0  0  0  0  0  0  0  0
   25.3123   11.3733    8.3121 H   0  0  0  0  0  0  0  0  0  0  0  0
   26.6028   10.5838    7.3052 H   0  0  0  0  0  0  0  0  0  0  0  0
   25.9857   13.4896    6.2688 H   0  0  0  0  0  0  0  0  0  0  0  0
   26.7326   15.0708    2.0151 H   0  0  0  0  0  0  0  0  0  0  0  0
   28.7872   16.5221    2.4613 H   0  0  0  0  0  0  0  0  0  0  0  0
   29.1307   17.4533    4.7127 H   0  0  0  0  0  0  0  0  0  0  0  0
   28.0424   17.5933    7.3132 H   0  0  0  0  0  0  0  0  0  0  0  0
   23.8681   15.4169    8.3207 H   0  0  0  0  0  0  0  0  0  0  0  0
   22.9420   15.6506   10.6407 H   0  0  0  0  0  0  0  0  0  0  0  0
   27.3647   17.7583    9.4271 H   0  0  0  0  0  0  0  0  0  0  0  0
   24.5328   18.2728   14.9166 H   0  0  0  0  0  0  0  0  0  0  0  0
   26.3215   16.7704   15.5308 H   0  0  0  0  0  0  0  0  0  0  0  0
   27.5479   17.9590   14.9812 H   0  0  0  0  0  0  0  0  0  0  0  0
   25.4689   18.3586   17.1905 H   0  0  0  0  0  0  0  0  0  0  0  0
   27.2548   18.1442   17.3942 H   0  0  0  0  0  0  0  0  0  0  0  0
   26.2566   21.6309   15.3890 H   0  0  0  0  0  0  0  0  0  0  0  0
   23.3076   11.5559    3.5020 H   0  0  0  0  0  0  0  0  0  0  0  0
  1  2  1  0
  2  3  1  0
  3  4  2  0
  4  5  1  0
  5  6  1  0
  6  7  2  0
  6  8  2  0
  6  9  1  0
  9 10  2  0
 10 11  1  0
 11 12  2  0
 12 13  1  0
 13 14  1  0
 14 15  2  0
 15 16  1  0
 16 17  2  0
 17 18  1  0
 18 19  2  0
 19 20  1  0
 20 21  2  0
 20 22  1  0
 22 23  2  0
 22 24  1  0
 24 25  1  0
 25 26  1  0
 26 27  1  0
 27 28  1  0
 28 29  2  0
 28 30  1  0
 30 31  1  0
 31 32  2  0
 24 33  1  0
 33 34  2  0
 15 35  1  0
 35 36  2  0
  5 37  1  0
 37 38  2  0
 38  3  1  0
 36  9  1  0
 36 13  1  0
 21 16  1  0
 31 25  1  0
 33 19  1  0
  1 39  1  0
  1 40  1  0
  1 41  1  0
  2 42  1  0
  2 43  1  0
  4 44  1  0
 10 45  1  0
 11 46  1  0
 12 47  1  0
 14 48  1  0
 17 49  1  0
 18 50  1  0
 21 51  1  0
 25 52  1  1
 26 53  1  0
 26 54  1  0
 27 55  1  0
 27 56  1  0
 30 57  1  0
 37 58  1  0
M  END
>  <meeko>  (353) 
{"is_sidechain": [true], "free_energy": -12.95, "intermolecular_energy": 0.0, "internal_energy": -12.95, "cluster_size": 19, "cluster_id": 1, "rank_in_cluster": 1}

>  <_RMSD_MCS_to_ref>  (353) 
0.6196266797211215

$$$$
ligand
     RDKit          3D

 60 65  0  0  0  0  0  0  0  0999 V2000
   24.8710    9.6170    7.7810 C   0  0  0  0  0  0  0  0  0  0  0  0
   25.4240   10.9640    7.3500 C   0  0  0  0  0  0  0  0  0  0  0  0
   24.9860   11.3470    5.9790 C   0  0  0  0  0  0  0  0  0  0  0  0
   24.1270   12.3600    5.5980 C   0  0  0  0  0  0  0  0  0  0  0  0
   24.0520   12.2440    4.2390 N   0  0  0  0  0  0  0  0  0  0  0  0
   23.3930   13.3880    3.1870 S   0  0  0  0  0  6  0  0  0  0  0  0
   22.0650   13.6570    3.7050 O   0  0  0  0  0  0  0  0  0  0  0  0
   23.5870   12.8170    1.8680 O   0  0  0  0  0  0  0  0  0  0  0  0
   24.3170   14.7370    3.2990 O   0  0  0  0  0  0  0  0  0  0  0  0
   25.6180   14.6680    3.7640 C   0  0  0  0  0  0  0  0  0  0  0  0
   26.6580   14.3820    2.9560 C   0  0  0  0  0  0  0  0  0  0  0  0
   28.0010   14.3250    3.5130 C   0  0  0  0  0  0  0  0  0  0  0  0
   28.2310   14.5490    4.8210 C   0  0  0  0  0  0  0  0  0  0  0  0
   27.1430   14.8450    5.6870 C   0  0  0  0  0  0  0  0  0  0  0  0
   27.1070   15.1230    6.9730 N   0  0  0  0  0  0  0  0  0  0  0  0
   25.7810   15.3380    7.2700 C   0  0  0  0  0  0  0  0  0  0  0  0
   25.3070   15.7010    8.5950 C   0  0  0  0  0  0  0  0  0  0  0  0
   24.0630   15.1950    9.0430 C   0  0  0  0  0  0  0  0  0  0  0  0
   23.5660   15.5070   10.3120 C   0  0  0  0  0  0  0  0  0  0  0  0
   24.3440   16.3170   11.1150 C   0  0  0  0  0  0  0  0  0  0  0  0
   25.5750   16.8200   10.7040 C   0  0  0  0  0  0  0  0  0  0  0  0
   26.0700   16.5250    9.4450 C   0  0  0  0  0  0  0  0  0  0  0  0
   26.1680   17.6590   11.7850 C   0  0  0  0  0  0  0  0  0  0  0  0
   25.2160   17.4980   12.8750 N   0  0  0  0  0  0  0  0  0  0  0  0
   25.2910   18.3240   14.0750 C   0  0  2  0  0  0  0  0  0  0  0  0
   25.9720   19.6740   13.8520 C   0  0  0  0  0  0  0  0  0  0  0  0
   25.9410   20.4730   15.1450 C   0  0  0  0  0  0  0  0  0  0  0  0
   26.5910   19.7110   16.2760 C   0  0  0  0  0  0  0  0  0  0  0  0
   27.0490   20.2750   17.2660 O   0  0  0  0  0  0  0  0  0  0  0  0
   26.5720   18.3420   16.1890 N   0  0  0  0  0  0  0  0  0  0  0  0
   25.9620   17.5640   15.2310 C   0  0  0  0  0  0  0  0  0  0  0  0
   25.8830   16.3450   15.3800 O   0  0  0  0  0  0  0  0  0  0  0  0
   24.0870   16.7960   12.4770 C   0  0  0  0  0  0  0  0  0  0  0  0
   23.0580   16.6040   13.0950 O   0  0  0  0  0  0  0  0  0  0  0  0
   24.9980   15.1530    6.1510 C   0  0  0  0  0  0  0  0  0  0  0  0
   25.8700   14.8730    5.1280 N   0  0  0  0  0  0  0  0  0  0  0  0
   24.8740   11.2420    3.8340 C   0  0  0  0  0  0  0  0  0  0  0  0
   25.4550   10.6710    4.8690 N   0  0  0  0  0  0  0  0  0  0  0  0
   24.8493    9.5641    8.8795 H   0  0  0  0  0  0  0  0  0  0  0  0
   23.8507    9.4967    7.3878 H   0  0  0  0  0  0  0  0  0  0  0  0
   25.5124    8.8145    7.3878 H   0  0  0  0  0  0  0  0  0  0  0  0
   25.0774   11.7309    8.0584 H   0  0  0  0  0  0  0  0  0  0  0  0
   26.5214   10.8882    7.3418 H   0  0  0  0  0  0  0  0  0  0  0  0
   23.6192   13.0929    6.2423 H   0  0  0  0  0  0  0  0  0  0  0  0
   26.4930   14.1933    1.8849 H   0  0  0  0  0  0  0  0  0  0  0  0
   28.8481   14.0936    2.8505 H   0  0  0  0  0  0  0  0  0  0  0  0
   29.2560   14.5031    5.2175 H   0  0  0  0  0  0  0  0  0  0  0  0
   23.4757   14.5433    8.3794 H   0  0  0  0  0  0  0  0  0  0  0  0
   22.5946   15.1228   10.6566 H   0  0  0  0  0  0  0  0  0  0  0  0
   27.0397   16.9261    9.1153 H   0  0  0  0  0  0  0  0  0  0  0  0
   27.1643   17.2909   12.0711 H   0  0  0  0  0  0  0  0  0  0  0  0
   26.3196   18.7077   11.4896 H   0  0  0  0  0  0  0  0  0  0  0  0
   24.2486   18.5465   14.3470 H   0  0  0  0  0  0  0  0  0  0  0  0
   27.0159   19.5125   13.5449 H   0  0  0  0  0  0  0  0  0  0  0  0
   25.4413   20.2283   13.0639 H   0  0  0  0  0  0  0  0  0  0  0  0
   26.4802   21.4199   14.9943 H   0  0  0  0  0  0  0  0  0  0  0  0
   24.8907   20.6619   15.4117 H   0  0  0  0  0  0  0  0  0  0  0  0
   27.0753   17.8346   16.9306 H   0  0  0  0  0  0  0  0  0  0  0  0
   23.9015   15.2165    6.0901 H   0  0  0  0  0  0  0  0  0  0  0  0
   25.0328   10.9477    2.7861 H   0  0  0  0  0  0  0  0  0  0  0  0
  1  2  1  0
  2  3  1  0
  3  4  2  0
  4  5  1  0
  5  6  1  0
  6  7  2  0
  6  8  2  0
  6  9  1  0
  9 10  1  0
 10 11  2  0
 11 12  1  0
 12 13  2  0
 13 14  1  0
 14 15  2  0
 15 16  1  0
 16 17  1  0
 17 18  2  0
 18 19  1  0
 19 20  2  0
 20 21  1  0
 21 22  2  0
 21 23  1  0
 23 24  1  0
 24 25  1  0
 25 26  1  0
 26 27  1  0
 27 28  1  0
 28 29  2  0
 28 30  1  0
 30 31  1  0
 31 32  2  0
 24 33  1  0
 33 34  2  0
 16 35  2  0
 35 36  1  0
  5 37  1  0
 37 38  2  0
 38  3  1  0
 36 10  1  0
 36 14  1  0
 22 17  1  0
 31 25  1  0
 33 20  1  0
  1 39  1  0
  1 40  1  0
  1 41  1  0
  2 42  1  0
  2 43  1  0
  4 44  1  0
 11 45  1  0
 12 46  1  0
 13 47  1  0
 18 48  1  0
 19 49  1  0
 22 50  1  0
 23 51  1  0
 23 52  1  0
 25 53  1  1
 26 54  1  0
 26 55  1  0
 27 56  1  0
 27 57  1  0
 30 58  1  0
 35 59  1  0
 37 60  1  0
M  END
>  <meeko>  (354) 
{"is_sidechain": [true], "free_energy": -12.95, "intermolecular_energy": 0.0, "internal_energy": -12.95, "cluster_size": 14, "cluster_id": 1, "rank_in_cluster": 1}

>  <_RMSD_MCS_to_ref>  (354) 
1.6281171398436391

$$$$
ligand
     RDKit          3D

 59 63  0  0  0  0  0  0  0  0999 V2000
   24.8540    9.4020    7.6050 C   0  0  0  0  0  0  0  0  0  0  0  0
   25.5230   10.7550    7.4270 C   0  0  0  0  0  0  0  0  0  0  0  0
   25.0710   11.4490    6.1900 C   0  0  0  0  0  0  0  0  0  0  0  0
   25.5350   12.6260    5.6340 C   0  0  0  0  0  0  0  0  0  0  0  0
   24.7830   12.7800    4.5040 N   0  0  0  0  0  0  0  0  0  0  0  0
   24.7450   14.1560    3.5430 S   0  0  0  0  0  6  0  0  0  0  0  0
   24.7800   13.7470    2.1530 O   0  0  0  0  0  0  0  0  0  0  0  0
   23.6080   14.9010    4.0600 O   0  0  0  0  0  0  0  0  0  0  0  0
   26.1910   15.0970    3.8930 C   0  0  0  0  0  0  0  0  0  0  0  0
   27.1510   15.2380    2.8780 C   0  0  0  0  0  0  0  0  0  0  0  0
   28.3510   15.8930    3.1380 C   0  0  0  0  0  0  0  0  0  0  0  0
   28.5690   16.3750    4.4130 C   0  0  0  0  0  0  0  0  0  0  0  0
   27.6750   16.2500    5.4160 N   0  0  0  0  0  0  0  0  0  0  0  0
   26.4860   15.6160    5.1440 C   0  0  0  0  0  0  0  0  0  0  0  0
   25.5660   15.5850    6.3320 C   0  0  0  0  0  0  0  0  0  0  0  0
   24.4330   15.1450    6.2210 O   0  0  0  0  0  0  0  0  0  0  0  0
   26.1300   16.1410    7.4650 N   0  0  0  0  0  0  0  0  0  0  0  0
   25.5600   16.2860    8.7420 C   0  0  0  0  0  0  0  0  0  0  0  0
   24.3180   15.7320    9.1110 C   0  0  0  0  0  0  0  0  0  0  0  0
   23.7890   15.9080   10.3990 C   0  0  0  0  0  0  0  0  0  0  0  0
   24.5230   16.6390   11.3120 C   0  0  0  0  0  0  0  0  0  0  0  0
   25.7500   17.1790   10.9430 C   0  0  0  0  0  0  0  0  0  0  0  0
   26.2900   17.0260    9.6790 C   0  0  0  0  0  0  0  0  0  0  0  0
   26.2980   17.8970   12.0970 C   0  0  0  0  0  0  0  0  0  0  0  0
   27.3240   18.5490   12.0800 O   0  0  0  0  0  0  0  0  0  0  0  0
   25.4200   17.6940   13.1510 N   0  0  0  0  0  0  0  0  0  0  0  0
   25.4750   18.4130   14.4190 C   0  0  1  0  0  0  0  0  0  0  0  0
   26.5080   17.8560   15.3970 C   0  0  0  0  0  0  0  0  0  0  0  0
   26.4390   18.6360   16.7010 C   0  0  0  0  0  0  0  0  0  0  0  0
   26.6470   20.1140   16.4660 C   0  0  0  0  0  0  0  0  0  0  0  0
   27.0500   20.8660   17.3500 O   0  0  0  0  0  0  0  0  0  0  0  0
   26.2850   20.6000   15.2350 N   0  0  0  0  0  0  0  0  0  0  0  0
   25.6980   19.9170   14.1950 C   0  0  0  0  0  0  0  0  0  0  0  0
   25.2920   20.5250   13.2050 O   0  0  0  0  0  0  0  0  0  0  0  0
   24.2090   17.0040   12.7230 C   0  0  0  0  0  0  0  0  0  0  0  0
   23.8630   11.7820    4.4440 C   0  0  0  0  0  0  0  0  0  0  0  0
   24.0300   10.9380    5.4420 N   0  0  0  0  0  0  0  0  0  0  0  0
   24.7464    9.1845    8.6779 H   0  0  0  0  0  0  0  0  0  0  0  0
   23.8606    9.4192    7.1330 H   0  0  0  0  0  0  0  0  0  0  0  0
   25.4708    8.6230    7.1330 H   0  0  0  0  0  0  0  0  0  0  0  0
   25.2819   11.3860    8.2951 H   0  0  0  0  0  0  0  0  0  0  0  0
   26.6067   10.5866    7.3422 H   0  0  0  0  0  0  0  0  0  0  0  0
   26.3278   13.2871    6.0141 H   0  0  0  0  0  0  0  0  0  0  0  0
   26.9542   14.8300    1.8756 H   0  0  0  0  0  0  0  0  0  0  0  0
   29.1058   16.0232    2.3485 H   0  0  0  0  0  0  0  0  0  0  0  0
   29.5199   16.8870    4.6220 H   0  0  0  0  0  0  0  0  0  0  0  0
   27.0917   16.4946    7.3602 H   0  0  0  0  0  0  0  0  0  0  0  0
   23.7497   15.1479    8.3722 H   0  0  0  0  0  0  0  0  0  0  0  0
   22.8158   15.4752   10.6738 H   0  0  0  0  0  0  0  0  0  0  0  0
   27.2615   17.4714    9.4187 H   0  0  0  0  0  0  0  0  0  0  0  0
   24.4922   18.2611   14.8891 H   0  0  0  0  0  0  0  0  0  0  0  0
   26.2942   16.7948   15.5921 H   0  0  0  0  0  0  0  0  0  0  0  0
   27.5144   17.9520   14.9635 H   0  0  0  0  0  0  0  0  0  0  0  0
   25.4512   18.4813   17.1597 H   0  0  0  0  0  0  0  0  0  0  0  0
   27.2368   18.2736   17.3659 H   0  0  0  0  0  0  0  0  0  0  0  0
   26.4761   21.5984   15.0692 H   0  0  0  0  0  0  0  0  0  0  0  0
   24.0261   16.1075   13.3336 H   0  0  0  0  0  0  0  0  0  0  0  0
   23.2992   17.6139   12.8247 H   0  0  0  0  0  0  0  0  0  0  0  0
   23.0867   11.6912    3.6699 H   0  0  0  0  0  0  0  0  0  0  0  0
  1  2  1  0
  2  3  1  0
  3  4  2  0
  4  5  1  0
  5  6  1  0
  6  7  2  0
  6  8  2  0
  6  9  1  0
  9 10  2  0
 10 11  1  0
 11 12  2  0
 12 13  1  0
 13 14  2  0
 14 15  1  0
 15 16  2  0
 15 17  1  0
 17 18  1  0
 18 19  2  0
 19 20  1  0
 20 21  2  0
 21 22  1  0
 22 23  2  0
 22 24  1  0
 24 25  2  0
 24 26  1  0
 26 27  1  0
 27 28  1  0
 28 29  1  0
 29 30  1  0
 30 31  2  0
 30 32  1  0
 32 33  1  0
 33 34  2  0
 26 35  1  0
  5 36  1  0
 36 37  2  0
 37  3  1  0
 14  9  1  0
 23 18  1  0
 33 27  1  0
 35 21  1  0
  1 38  1  0
  1 39  1  0
  1 40  1  0
  2 41  1  0
  2 42  1  0
  4 43  1  0
 10 44  1  0
 11 45  1  0
 12 46  1  0
 17 47  1  0
 19 48  1  0
 20 49  1  0
 23 50  1  0
 27 51  1  1
 28 52  1  0
 28 53  1  0
 29 54  1  0
 29 55  1  0
 32 56  1  0
 35 57  1  0
 35 58  1  0
 36 59  1  0
M  END
>  <meeko>  (355) 
{"is_sidechain": [true], "free_energy": -12.94, "intermolecular_energy": 0.0, "internal_energy": -12.94, "cluster_size": 16, "cluster_id": 1, "rank_in_cluster": 1}

>  <_RMSD_MCS_to_ref>  (355) 
0.6022423723053696

$$$$
ligand
     RDKit          3D

 54 58  0  0  0  0  0  0  0  0999 V2000
   24.8540    9.4020    7.6050 C   0  0  0  0  0  0  0  0  0  0  0  0
   25.5230   10.7550    7.4270 C   0  0  0  0  0  0  0  0  0  0  0  0
   25.2200   11.3620    6.1020 C   0  0  0  0  0  0  0  0  0  0  0  0
   24.6870   12.6030    5.8150 C   0  0  0  0  0  0  0  0  0  0  0  0
   24.5910   12.6190    4.4520 N   0  0  0  0  0  0  0  0  0  0  0  0
   24.2280   13.9650    3.5090 S   0  0  0  0  0  6  0  0  0  0  0  0
   24.7880   13.6760    2.2030 O   0  0  0  0  0  0  0  0  0  0  0  0
   22.8020   14.1810    3.6850 O   0  0  0  0  0  0  0  0  0  0  0  0
   25.0430   15.2230    4.1650 O   0  0  0  0  0  0  0  0  0  0  0  0
   25.2800   15.3450    5.4740 C   0  0  0  0  0  0  0  0  0  0  0  0
   24.4490   15.7500    6.4910 C   0  0  0  0  0  0  0  0  0  0  0  0
   25.2250   15.7010    7.6820 C   0  0  0  0  0  0  0  0  0  0  0  0
   24.8130   16.0250    9.0560 C   0  0  0  0  0  0  0  0  0  0  0  0
   23.6470   15.4520    9.6200 C   0  0  0  0  0  0  0  0  0  0  0  0
   23.2480   15.7540   10.9280 C   0  0  0  0  0  0  0  0  0  0  0  0
   24.0320   16.6360   11.6440 C   0  0  0  0  0  0  0  0  0  0  0  0
   25.1820   17.2150   11.1190 C   0  0  0  0  0  0  0  0  0  0  0  0
   25.5850   16.9190    9.8270 C   0  0  0  0  0  0  0  0  0  0  0  0
   25.8210   18.0950   12.1380 C   0  0  0  0  0  0  0  0  0  0  0  0
   24.8680   18.0530   13.2390 N   0  0  0  0  0  0  0  0  0  0  0  0
   25.1960   18.6150   14.5460 C   0  0  1  0  0  0  0  0  0  0  0  0
   26.3300   17.8820   15.2610 C   0  0  0  0  0  0  0  0  0  0  0  0
   26.5470   18.5050   16.6310 C   0  0  0  0  0  0  0  0  0  0  0  0
   26.8340   19.9850   16.5210 C   0  0  0  0  0  0  0  0  0  0  0  0
   27.4360   20.6010   17.3950 O   0  0  0  0  0  0  0  0  0  0  0  0
   26.3130   20.6340   15.4290 N   0  0  0  0  0  0  0  0  0  0  0  0
   25.5020   20.1170   14.4450 C   0  0  0  0  0  0  0  0  0  0  0  0
   24.9860   20.8620   13.6130 O   0  0  0  0  0  0  0  0  0  0  0  0
   23.8600   17.1280   13.0160 C   0  0  0  0  0  0  0  0  0  0  0  0
   22.9920   16.7530   13.7790 O   0  0  0  0  0  0  0  0  0  0  0  0
   26.4750   15.2950    7.4030 N   0  0  0  0  0  0  0  0  0  0  0  0
   26.4850   15.0980    6.0760 N   0  0  0  0  0  0  0  0  0  0  0  0
   25.1220   11.4740    3.9560 C   0  0  0  0  0  0  0  0  0  0  0  0
   25.4910   10.6750    4.9350 N   0  0  0  0  0  0  0  0  0  0  0  0
   24.7464    9.1845    8.6779 H   0  0  0  0  0  0  0  0  0  0  0  0
   23.8606    9.4192    7.1330 H   0  0  0  0  0  0  0  0  0  0  0  0
   25.4708    8.6230    7.1330 H   0  0  0  0  0  0  0  0  0  0  0  0
   25.1672   11.4328    8.2169 H   0  0  0  0  0  0  0  0  0  0  0  0
   26.6109   10.6046    7.4888 H   0  0  0  0  0  0  0  0  0  0  0  0
   24.4043   13.3971    6.5218 H   0  0  0  0  0  0  0  0  0  0  0  0
   23.3949   16.0516    6.4018 H   0  0  0  0  0  0  0  0  0  0  0  0
   23.0431   14.7563    9.0190 H   0  0  0  0  0  0  0  0  0  0  0  0
   22.3448   15.3057   11.3677 H   0  0  0  0  0  0  0  0  0  0  0  0
   26.4943   17.3748    9.4082 H   0  0  0  0  0  0  0  0  0  0  0  0
   26.8003   17.6997   12.4456 H   0  0  0  0  0  0  0  0  0  0  0  0
   26.0214   19.1129   11.7722 H   0  0  0  0  0  0  0  0  0  0  0  0
   24.2972   18.4732   15.1642 H   0  0  0  0  0  0  0  0  0  0  0  0
   26.0652   16.8207   15.3779 H   0  0  0  0  0  0  0  0  0  0  0  0
   27.2531   17.9647   14.6685 H   0  0  0  0  0  0  0  0  0  0  0  0
   25.6415   18.3596   17.2385 H   0  0  0  0  0  0  0  0  0  0  0  0
   27.4132   18.0170   17.1016 H   0  0  0  0  0  0  0  0  0  0  0  0
   26.5594   21.6297   15.3349 H   0  0  0  0  0  0  0  0  0  0  0  0
   27.3206   14.7899    5.5585 H   0  0  0  0  0  0  0  0  0  0  0  0
   25.2294   11.2449    2.8855 H   0  0  0  0  0  0  0  0  0  0  0  0
  1  2  1  0
  2  3  1  0
  3  4  2  0
  4  5  1  0
  5  6  1  0
  6  7  2  0
  6  8  2  0
  6  9  1  0
  9 10  1  0
 10 11  2  0
 11 12  1  0
 12 13  1  0
 13 14  2  0
 14 15  1  0
 15 16  2  0
 16 17  1  0
 17 18  2  0
 17 19  1  0
 19 20  1  0
 20 21  1  0
 21 22  1  0
 22 23  1  0
 23 24  1  0
 24 25  2  0
 24 26  1  0
 26 27  1  0
 27 28  2  0
 20 29  1  0
 29 30  2  0
 12 31  2  0
 31 32  1  0
  5 33  1  0
 33 34  2  0
 34  3  1  0
 32 10  1  0
 18 13  1  0
 27 21  1  0
 29 16  1  0
  1 35  1  0
  1 36  1  0
  1 37  1  0
  2 38  1  0
  2 39  1  0
  4 40  1  0
 11 41  1  0
 14 42  1  0
 15 43  1  0
 18 44  1  0
 19 45  1  0
 19 46  1  0
 21 47  1  1
 22 48  1  0
 22 49  1  0
 23 50  1  0
 23 51  1  0
 26 52  1  0
 32 53  1  0
 33 54  1  0
M  END
>  <meeko>  (356) 
{"is_sidechain": [true], "free_energy": -12.94, "intermolecular_energy": 0.0, "internal_energy": -12.94, "cluster_size": 17, "cluster_id": 1, "rank_in_cluster": 1}

>  <_RMSD_MCS_to_ref>  (356) 
0.40705568824588695

$$$$
ligand
     RDKit          3D

 62 67  0  0  0  0  0  0  0  0999 V2000
   24.8710    9.6160    7.7820 C   0  0  0  0  0  0  0  0  0  0  0  0
   25.4240   10.9650    7.3490 C   0  0  0  0  0  0  0  0  0  0  0  0
   25.3550   11.1540    5.8740 C   0  0  0  0  0  0  0  0  0  0  0  0
   26.2610   11.7690    5.0340 C   0  0  0  0  0  0  0  0  0  0  0  0
   25.7140   11.6270    3.7900 N   0  0  0  0  0  0  0  0  0  0  0  0
   26.2470   12.3960    2.3860 S   0  0  0  0  0  6  0  0  0  0  0  0
   25.3350   11.9440    1.3520 O   0  0  0  0  0  0  0  0  0  0  0  0
   27.6680   12.1080    2.3270 O   0  0  0  0  0  0  0  0  0  0  0  0
   26.0280   13.9900    2.6430 O   0  0  0  0  0  0  0  0  0  0  0  0
   25.9740   14.5360    3.9000 C   0  0  0  0  0  0  0  0  0  0  0  0
   26.8230   15.5260    4.3890 C   0  0  0  0  0  0  0  0  0  0  0  0
   26.6650   16.0030    5.6960 C   0  0  0  0  0  0  0  0  0  0  0  0
   25.6570   15.4970    6.5320 C   0  0  0  0  0  0  0  0  0  0  0  0
   25.4770   15.9580    7.8440 C   0  0  0  0  0  0  0  0  0  0  0  0
   24.4580   15.4240    8.6350 C   0  0  0  0  0  0  0  0  0  0  0  0
   24.2060   15.8620   10.0260 C   0  0  0  0  0  0  0  0  0  0  0  0
   23.0010   15.5390   10.7040 C   0  0  0  0  0  0  0  0  0  0  0  0
   22.7560   15.9550   12.0200 C   0  0  0  0  0  0  0  0  0  0  0  0
   23.7410   16.6890   12.6460 C   0  0  0  0  0  0  0  0  0  0  0  0
   24.9380   17.0200   12.0220 C   0  0  0  0  0  0  0  0  0  0  0  0
   25.1830   16.6130   10.7190 C   0  0  0  0  0  0  0  0  0  0  0  0
   25.7920   17.8250   12.9430 C   0  0  0  0  0  0  0  0  0  0  0  0
   25.0060   17.8370   14.1720 N   0  0  0  0  0  0  0  0  0  0  0  0
   25.2990   18.7060   15.3050 C   0  0  1  0  0  0  0  0  0  0  0  0
   26.3160   18.0920   16.2640 C   0  0  0  0  0  0  0  0  0  0  0  0
   26.5000   19.0110   17.4620 C   0  0  0  0  0  0  0  0  0  0  0  0
   26.9020   20.4000   17.0250 C   0  0  0  0  0  0  0  0  0  0  0  0
   27.6790   21.0940   17.6760 O   0  0  0  0  0  0  0  0  0  0  0  0
   26.3400   20.8660   15.8650 N   0  0  0  0  0  0  0  0  0  0  0  0
   25.8020   20.0910   14.8620 C   0  0  0  0  0  0  0  0  0  0  0  0
   25.7560   20.5130   13.7100 O   0  0  0  0  0  0  0  0  0  0  0  0
   23.7620   17.2480   14.0010 C   0  0  0  0  0  0  0  0  0  0  0  0
   22.8450   17.1880   14.7970 O   0  0  0  0  0  0  0  0  0  0  0  0
   23.6360   14.4490    8.1720 N   0  0  0  0  0  0  0  0  0  0  0  0
   23.8200   14.0170    6.9020 C   0  0  0  0  0  0  0  0  0  0  0  0
   24.8040   14.4970    6.0390 C   0  0  0  0  0  0  0  0  0  0  0  0
   24.9680   14.0230    4.7240 C   0  0  0  0  0  0  0  0  0  0  0  0
   24.5010   11.0300    3.9040 C   0  0  0  0  0  0  0  0  0  0  0  0
   24.2620   10.7050    5.1580 N   0  0  0  0  0  0  0  0  0  0  0  0
   24.8497    9.5640    8.8806 H   0  0  0  0  0  0  0  0  0  0  0  0
   23.8507    9.4948    7.3893 H   0  0  0  0  0  0  0  0  0  0  0  0
   25.5127    8.8135    7.3893 H   0  0  0  0  0  0  0  0  0  0  0  0
   24.8399   11.7600    7.8357 H   0  0  0  0  0  0  0  0  0  0  0  0
   26.4824   11.0070    7.6456 H   0  0  0  0  0  0  0  0  0  0  0  0
   27.2070   12.2609    5.3042 H   0  0  0  0  0  0  0  0  0  0  0  0
   27.6184   15.9336    3.7478 H   0  0  0  0  0  0  0  0  0  0  0  0
   27.3402   16.7852    6.0730 H   0  0  0  0  0  0  0  0  0  0  0  0
   26.1374   16.7388    8.2492 H   0  0  0  0  0  0  0  0  0  0  0  0
   22.2372   14.9448   10.1811 H   0  0  0  0  0  0  0  0  0  0  0  0
   21.8153   15.7058   12.5328 H   0  0  0  0  0  0  0  0  0  0  0  0
   26.1321   16.8730   10.2275 H   0  0  0  0  0  0  0  0  0  0  0  0
   26.7691   17.3450   13.1006 H   0  0  0  0  0  0  0  0  0  0  0  0
   26.0235   18.8300   12.5605 H   0  0  0  0  0  0  0  0  0  0  0  0
   24.3415   18.8247   15.8334 H   0  0  0  0  0  0  0  0  0  0  0  0
   25.9526   17.1117   16.6059 H   0  0  0  0  0  0  0  0  0  0  0  0
   27.2786   17.9654   15.7469 H   0  0  0  0  0  0  0  0  0  0  0  0
   25.5531   19.0695   18.0188 H   0  0  0  0  0  0  0  0  0  0  0  0
   27.2978   18.6002   18.0983 H   0  0  0  0  0  0  0  0  0  0  0  0
   26.3181   21.8871   15.7316 H   0  0  0  0  0  0  0  0  0  0  0  0
   23.1465   13.2331    6.5252 H   0  0  0  0  0  0  0  0  0  0  0  0
   24.2971   13.2402    4.3404 H   0  0  0  0  0  0  0  0  0  0  0  0
   23.8131   10.8434    3.0662 H   0  0  0  0  0  0  0  0  0  0  0  0
  1  2  1  0
  2  3  1  0
  3  4  2  0
  4  5  1  0
  5  6  1  0
  6  7  2  0
  6  8  2  0
  6  9  1  0
  9 10  1  0
 10 11  2  0
 11 12  1  0
 12 13  2  0
 13 14  1  0
 14 15  2  0
 15 16  1  0
 16 17  2  0
 17 18  1  0
 18 19  2  0
 19 20  1  0
 20 21  2  0
 20 22  1  0
 22 23  1  0
 23 24  1  0
 24 25  1  0
 25 26  1  0
 26 27  1  0
 27 28  2  0
 27 29  1  0
 29 30  1  0
 30 31  2  0
 23 32  1  0
 32 33  2  0
 15 34  1  0
 34 35  2  0
 35 36  1  0
 36 37  2  0
  5 38  1  0
 38 39  2  0
 39  3  1  0
 37 10  1  0
 36 13  1  0
 21 16  1  0
 30 24  1  0
 32 19  1  0
  1 40  1  0
  1 41  1  0
  1 42  1  0
  2 43  1  0
  2 44  1  0
  4 45  1  0
 11 46  1  0
 12 47  1  0
 14 48  1  0
 17 49  1  0
 18 50  1  0
 21 51  1  0
 22 52  1  0
 22 53  1  0
 24 54  1  1
 25 55  1  0
 25 56  1  0
 26 57  1  0
 26 58  1  0
 29 59  1  0
 35 60  1  0
 37 61  1  0
 38 62  1  0
M  END
>  <meeko>  (357) 
{"is_sidechain": [true], "free_energy": -12.93, "intermolecular_energy": 0.0, "internal_energy": -12.93, "cluster_size": 9, "cluster_id": 1, "rank_in_cluster": 1}

>  <_RMSD_MCS_to_ref>  (357) 
1.2060093392324078

$$$$
ligand
     RDKit          3D

 61 66  0  0  0  0  0  0  0  0999 V2000
   24.8710    9.6160    7.7820 C   0  0  0  0  0  0  0  0  0  0  0  0
   25.4240   10.9650    7.3490 C   0  0  0  0  0  0  0  0  0  0  0  0
   26.8270   11.1670    7.8020 C   0  0  0  0  0  0  0  0  0  0  0  0
   27.3190   12.0490    8.7450 C   0  0  0  0  0  0  0  0  0  0  0  0
   28.6600   11.7900    8.7840 N   0  0  0  0  0  0  0  0  0  0  0  0
   29.8190   12.7820    9.5080 S   0  0  0  0  0  6  0  0  0  0  0  0
   31.0850   12.3340    8.9590 O   0  0  0  0  0  0  0  0  0  0  0  0
   29.5310   12.7050   10.9280 O   0  0  0  0  0  0  0  0  0  0  0  0
   29.4750   14.2980    8.9940 O   0  0  0  0  0  0  0  0  0  0  0  0
   28.8330   14.4420    7.7940 C   0  0  0  0  0  0  0  0  0  0  0  0
   29.4930   14.0610    6.6290 C   0  0  0  0  0  0  0  0  0  0  0  0
   28.8760   14.2010    5.3990 C   0  0  0  0  0  0  0  0  0  0  0  0
   29.5260   13.8210    4.2810 N   0  0  0  0  0  0  0  0  0  0  0  0
   28.8810   13.9700    3.1060 C   0  0  0  0  0  0  0  0  0  0  0  0
   27.6050   14.4880    2.9970 C   0  0  0  0  0  0  0  0  0  0  0  0
   26.9570   14.8760    4.1670 C   0  0  0  0  0  0  0  0  0  0  0  0
   27.5720   14.7440    5.4010 C   0  0  0  0  0  0  0  0  0  0  0  0
   26.9240   15.1320    6.5200 N   0  0  0  0  0  0  0  0  0  0  0  0
   27.5540   14.9960    7.7120 C   0  0  0  0  0  0  0  0  0  0  0  0
   26.7810   15.4460    8.8850 C   0  0  0  0  0  0  0  0  0  0  0  0
   25.5130   14.8680    9.1590 C   0  0  0  0  0  0  0  0  0  0  0  0
   24.7670   15.2230   10.2880 C   0  0  0  0  0  0  0  0  0  0  0  0
   25.3140   16.1620   11.1350 C   0  0  0  0  0  0  0  0  0  0  0  0
   26.5440   16.7650   10.8930 C   0  0  0  0  0  0  0  0  0  0  0  0
   27.2780   16.4330    9.7650 C   0  0  0  0  0  0  0  0  0  0  0  0
   26.8680   17.7230   11.9930 C   0  0  0  0  0  0  0  0  0  0  0  0
   25.7540   17.5340   12.9110 N   0  0  0  0  0  0  0  0  0  0  0  0
   25.5460   18.3420   14.1050 C   0  0  1  0  0  0  0  0  0  0  0  0
   26.2830   17.7790   15.3170 C   0  0  0  0  0  0  0  0  0  0  0  0
   25.9480   18.6120   16.5450 C   0  0  0  0  0  0  0  0  0  0  0  0
   26.2700   20.0710   16.3150 C   0  0  0  0  0  0  0  0  0  0  0  0
   26.7030   20.7960   17.2050 O   0  0  0  0  0  0  0  0  0  0  0  0
   26.0360   20.5600   15.0550 N   0  0  0  0  0  0  0  0  0  0  0  0
   25.9560   19.8090   13.9040 C   0  0  0  0  0  0  0  0  0  0  0  0
   26.2100   20.3200   12.8140 O   0  0  0  0  0  0  0  0  0  0  0  0
   24.7870   16.6850   12.4010 C   0  0  0  0  0  0  0  0  0  0  0  0
   23.7110   16.3920   12.8860 O   0  0  0  0  0  0  0  0  0  0  0  0
   28.9530   10.8410    7.8570 C   0  0  0  0  0  0  0  0  0  0  0  0
   27.8580   10.4370    7.2440 N   0  0  0  0  0  0  0  0  0  0  0  0
   24.8497    9.5640    8.8806 H   0  0  0  0  0  0  0  0  0  0  0  0
   23.8507    9.4948    7.3893 H   0  0  0  0  0  0  0  0  0  0  0  0
   25.5127    8.8135    7.3893 H   0  0  0  0  0  0  0  0  0  0  0  0
   25.3938   11.0247    6.2510 H   0  0  0  0  0  0  0  0  0  0  0  0
   24.8037   11.7485    7.8088 H   0  0  0  0  0  0  0  0  0  0  0  0
   26.7581   12.7915    9.3315 H   0  0  0  0  0  0  0  0  0  0  0  0
   30.5103   13.6465    6.6869 H   0  0  0  0  0  0  0  0  0  0  0  0
   29.3986   13.6627    2.1853 H   0  0  0  0  0  0  0  0  0  0  0  0
   27.1162   14.5908    2.0169 H   0  0  0  0  0  0  0  0  0  0  0  0
   25.9410   15.2938    4.1103 H   0  0  0  0  0  0  0  0  0  0  0  0
   25.1057   14.1195    8.4634 H   0  0  0  0  0  0  0  0  0  0  0  0
   23.7848   14.7713   10.4910 H   0  0  0  0  0  0  0  0  0  0  0  0
   28.2360   16.9321    9.5576 H   0  0  0  0  0  0  0  0  0  0  0  0
   27.8255   17.4700   12.4718 H   0  0  0  0  0  0  0  0  0  0  0  0
   26.9839   18.7620   11.6508 H   0  0  0  0  0  0  0  0  0  0  0  0
   24.4631   18.3041   14.2947 H   0  0  0  0  0  0  0  0  0  0  0  0
   25.9717   16.7373   15.4843 H   0  0  0  0  0  0  0  0  0  0  0  0
   27.3674   17.8125   15.1354 H   0  0  0  0  0  0  0  0  0  0  0  0
   24.8752   18.5110   16.7663 H   0  0  0  0  0  0  0  0  0  0  0  0
   26.5519   18.2491   17.3897 H   0  0  0  0  0  0  0  0  0  0  0  0
   25.9091   21.5779   14.9619 H   0  0  0  0  0  0  0  0  0  0  0  0
   29.9641   10.4621    7.6470 H   0  0  0  0  0  0  0  0  0  0  0  0
  1  2  1  0
  2  3  1  0
  3  4  2  0
  4  5  1  0
  5  6  1  0
  6  7  2  0
  6  8  2  0
  6  9  1  0
  9 10  1  0
 10 11  2  0
 11 12  1  0
 12 13  2  0
 13 14  1  0
 14 15  2  0
 15 16  1  0
 16 17  2  0
 17 18  1  0
 18 19  2  0
 19 20  1  0
 20 21  2  0
 21 22  1  0
 22 23  2  0
 23 24  1  0
 24 25  2  0
 24 26  1  0
 26 27  1  0
 27 28  1  0
 28 29  1  0
 29 30  1  0
 30 31  1  0
 31 32  2  0
 31 33  1  0
 33 34  1  0
 34 35  2  0
 27 36  1  0
 36 37  2  0
  5 38  1  0
 38 39  2  0
 39  3  1  0
 19 10  1  0
 25 20  1  0
 34 28  1  0
 17 12  1  0
 36 23  1  0
  1 40  1  0
  1 41  1  0
  1 42  1  0
  2 43  1  0
  2 44  1  0
  4 45  1  0
 11 46  1  0
 14 47  1  0
 15 48  1  0
 16 49  1  0
 21 50  1  0
 22 51  1  0
 25 52  1  0
 26 53  1  0
 26 54  1  0
 28 55  1  1
 29 56  1  0
 29 57  1  0
 30 58  1  0
 30 59  1  0
 33 60  1  0
 38 61  1  0
M  END
>  <meeko>  (358) 
{"is_sidechain": [true], "free_energy": -12.92, "intermolecular_energy": 0.0, "internal_energy": -12.92, "cluster_size": 12, "cluster_id": 1, "rank_in_cluster": 1}

>  <_RMSD_MCS_to_ref>  (358) 
1.2278432524681555

$$$$
ligand
     RDKit          3D

 59 64  0  0  0  0  0  0  0  0999 V2000
   24.8540    9.4020    7.6050 C   0  0  0  0  0  0  0  0  0  0  0  0
   25.5230   10.7550    7.4270 C   0  0  0  0  0  0  0  0  0  0  0  0
   25.0150   11.4810    6.2310 C   0  0  0  0  0  0  0  0  0  0  0  0
   25.2490   12.7840    5.8390 C   0  0  0  0  0  0  0  0  0  0  0  0
   24.5250   12.9220    4.6900 N   0  0  0  0  0  0  0  0  0  0  0  0
   24.5870   14.2590    3.6580 S   0  0  0  0  0  6  0  0  0  0  0  0
   23.3590   14.9730    3.9670 O   0  0  0  0  0  0  0  0  0  0  0  0
   24.7910   13.7010    2.3340 O   0  0  0  0  0  0  0  0  0  0  0  0
   25.9630   15.1960    4.1400 C   0  0  0  0  0  0  0  0  0  0  0  0
   26.9160   15.4610    3.2200 C   0  0  0  0  0  0  0  0  0  0  0  0
   28.0610   16.2750    3.5910 C   0  0  0  0  0  0  0  0  0  0  0  0
   28.1830   16.7820    4.8310 C   0  0  0  0  0  0  0  0  0  0  0  0
   27.1850   16.5130    5.8060 C   0  0  0  0  0  0  0  0  0  0  0  0
   27.0900   16.9100    7.0560 N   0  0  0  0  0  0  0  0  0  0  0  0
   25.9410   16.3380    7.5450 C   0  0  0  0  0  0  0  0  0  0  0  0
   25.4850   16.5220    8.9160 C   0  0  0  0  0  0  0  0  0  0  0  0
   24.2490   15.9500    9.3100 C   0  0  0  0  0  0  0  0  0  0  0  0
   23.7490   16.0890   10.6130 C   0  0  0  0  0  0  0  0  0  0  0  0
   24.5030   16.8040   11.5230 C   0  0  0  0  0  0  0  0  0  0  0  0
   25.7170   17.3640   11.1350 C   0  0  0  0  0  0  0  0  0  0  0  0
   26.2300   17.2460    9.8550 C   0  0  0  0  0  0  0  0  0  0  0  0
   26.2860   18.0630   12.2920 C   0  0  0  0  0  0  0  0  0  0  0  0
   27.3030   18.7270   12.2630 O   0  0  0  0  0  0  0  0  0  0  0  0
   25.4380   17.8230   13.3630 N   0  0  0  0  0  0  0  0  0  0  0  0
   25.5180   18.5150   14.6450 C   0  0  1  0  0  0  0  0  0  0  0  0
   26.6180   17.9840   15.5630 C   0  0  0  0  0  0  0  0  0  0  0  0
   26.5700   18.7290   16.8880 C   0  0  0  0  0  0  0  0  0  0  0  0
   26.6990   20.2210   16.6830 C   0  0  0  0  0  0  0  0  0  0  0  0
   27.0920   20.9720   17.5720 O   0  0  0  0  0  0  0  0  0  0  0  0
   26.2710   20.7160   15.4780 N   0  0  0  0  0  0  0  0  0  0  0  0
   25.6610   20.0330   14.4510 C   0  0  0  0  0  0  0  0  0  0  0  0
   25.1760   20.6440   13.4990 O   0  0  0  0  0  0  0  0  0  0  0  0
   24.2230   17.1320   12.9500 C   0  0  0  0  0  0  0  0  0  0  0  0
   25.3270   15.5890    6.5630 C   0  0  0  0  0  0  0  0  0  0  0  0
   26.1060   15.7090    5.4330 N   0  0  0  0  0  0  0  0  0  0  0  0
   23.9110   11.7470    4.4020 C   0  0  0  0  0  0  0  0  0  0  0  0
   24.1910   10.8460    5.3220 N   0  0  0  0  0  0  0  0  0  0  0  0
   24.7464    9.1845    8.6779 H   0  0  0  0  0  0  0  0  0  0  0  0
   23.8606    9.4192    7.1330 H   0  0  0  0  0  0  0  0  0  0  0  0
   25.4708    8.6230    7.1330 H   0  0  0  0  0  0  0  0  0  0  0  0
   25.3295   11.3661    8.3209 H   0  0  0  0  0  0  0  0  0  0  0  0
   26.6001   10.5828    7.2850 H   0  0  0  0  0  0  0  0  0  0  0  0
   25.8753   13.5381    6.3382 H   0  0  0  0  0  0  0  0  0  0  0  0
   26.8259   15.0637    2.1982 H   0  0  0  0  0  0  0  0  0  0  0  0
   28.8422   16.4804    2.8443 H   0  0  0  0  0  0  0  0  0  0  0  0
   29.0532   17.4033    5.0895 H   0  0  0  0  0  0  0  0  0  0  0  0
   23.6650   15.3804    8.5721 H   0  0  0  0  0  0  0  0  0  0  0  0
   22.7860   15.6423   10.9013 H   0  0  0  0  0  0  0  0  0  0  0  0
   27.1918   17.7060    9.5841 H   0  0  0  0  0  0  0  0  0  0  0  0
   24.5649   18.3065   15.1530 H   0  0  0  0  0  0  0  0  0  0  0  0
   26.4622   16.9095   15.7397 H   0  0  0  0  0  0  0  0  0  0  0  0
   27.5990   18.1371   15.0895 H   0  0  0  0  0  0  0  0  0  0  0  0
   25.6114   18.5168   17.3841 H   0  0  0  0  0  0  0  0  0  0  0  0
   27.4123   18.3893   17.5085 H   0  0  0  0  0  0  0  0  0  0  0  0
   26.4250   21.7225   15.3226 H   0  0  0  0  0  0  0  0  0  0  0  0
   24.0643   16.2194   13.5432 H   0  0  0  0  0  0  0  0  0  0  0  0
   23.3108   17.7306   13.0900 H   0  0  0  0  0  0  0  0  0  0  0  0
   24.3974   15.0094    6.6625 H   0  0  0  0  0  0  0  0  0  0  0  0
   23.2705   11.5713    3.5252 H   0  0  0  0  0  0  0  0  0  0  0  0
  1  2  1  0
  2  3  1  0
  3  4  2  0
  4  5  1  0
  5  6  1  0
  6  7  2  0
  6  8  2  0
  6  9  1  0
  9 10  2  0
 10 11  1  0
 11 12  2  0
 12 13  1  0
 13 14  2  0
 14 15  1  0
 15 16  1  0
 16 17  2  0
 17 18  1  0
 18 19  2  0
 19 20  1  0
 20 21  2  0
 20 22  1  0
 22 23  2  0
 22 24  1  0
 24 25  1  0
 25 26  1  0
 26 27  1  0
 27 28  1  0
 28 29  2  0
 28 30  1  0
 30 31  1  0
 31 32  2  0
 24 33  1  0
 15 34  2  0
 34 35  1  0
  5 36  1  0
 36 37  2  0
 37  3  1  0
 35  9  1  0
 35 13  1  0
 21 16  1  0
 31 25  1  0
 33 19  1  0
  1 38  1  0
  1 39  1  0
  1 40  1  0
  2 41  1  0
  2 42  1  0
  4 43  1  0
 10 44  1  0
 11 45  1  0
 12 46  1  0
 17 47  1  0
 18 48  1  0
 21 49  1  0
 25 50  1  1
 26 51  1  0
 26 52  1  0
 27 53  1  0
 27 54  1  0
 30 55  1  0
 33 56  1  0
 33 57  1  0
 34 58  1  0
 36 59  1  0
M  END
>  <meeko>  (359) 
{"is_sidechain": [true], "free_energy": -12.91, "intermolecular_energy": 0.0, "internal_energy": -12.91, "cluster_size": 20, "cluster_id": 1, "rank_in_cluster": 1}

>  <_RMSD_MCS_to_ref>  (359) 
0.5864439918317473

$$$$
ligand
     RDKit          3D

 59 64  0  0  0  0  0  0  0  0999 V2000
   24.8540    9.4020    7.6050 C   0  0  0  0  0  0  0  0  0  0  0  0
   25.5230   10.7550    7.4270 C   0  0  0  0  0  0  0  0  0  0  0  0
   25.3310   11.3030    6.0560 C   0  0  0  0  0  0  0  0  0  0  0  0
   25.9540   12.3770    5.4550 C   0  0  0  0  0  0  0  0  0  0  0  0
   25.3770   12.4520    4.2190 N   0  0  0  0  0  0  0  0  0  0  0  0
   25.9170   13.4070    2.9350 S   0  0  0  0  0  6  0  0  0  0  0  0
   27.0850   12.7060    2.4370 O   0  0  0  0  0  0  0  0  0  0  0  0
   24.7310   13.6230    2.1300 O   0  0  0  0  0  0  0  0  0  0  0  0
   26.3760   14.8190    3.6100 O   0  0  0  0  0  0  0  0  0  0  0  0
   26.1240   15.1120    4.9390 C   0  0  0  0  0  0  0  0  0  0  0  0
   24.8100   15.4930    5.2410 C   0  0  0  0  0  0  0  0  0  0  0  0
   24.4300   15.8130    6.5480 C   0  0  0  0  0  0  0  0  0  0  0  0
   25.3510   15.7750    7.6130 C   0  0  0  0  0  0  0  0  0  0  0  0
   24.9650   16.1010    8.9880 C   0  0  0  0  0  0  0  0  0  0  0  0
   23.6990   15.7030    9.4860 C   0  0  0  0  0  0  0  0  0  0  0  0
   23.3030   16.0010   10.7930 C   0  0  0  0  0  0  0  0  0  0  0  0
   24.1970   16.6950   11.5830 C   0  0  0  0  0  0  0  0  0  0  0  0
   25.4490   17.1000   11.1260 C   0  0  0  0  0  0  0  0  0  0  0  0
   25.8460   16.8090    9.8310 C   0  0  0  0  0  0  0  0  0  0  0  0
   26.1700   17.8420   12.2020 C   0  0  0  0  0  0  0  0  0  0  0  0
   25.2510   17.7390   13.3300 N   0  0  0  0  0  0  0  0  0  0  0  0
   25.3840   18.5290   14.5480 C   0  0  1  0  0  0  0  0  0  0  0  0
   26.3240   17.8870   15.5620 C   0  0  0  0  0  0  0  0  0  0  0  0
   26.3400   18.7200   16.8340 C   0  0  0  0  0  0  0  0  0  0  0  0
   26.7170   20.1540   16.5430 C   0  0  0  0  0  0  0  0  0  0  0  0
   27.3930   20.8260   17.3160 O   0  0  0  0  0  0  0  0  0  0  0  0
   26.2500   20.6850   15.3670 N   0  0  0  0  0  0  0  0  0  0  0  0
   25.8630   19.9620   14.2600 C   0  0  0  0  0  0  0  0  0  0  0  0
   25.9250   20.4640   13.1400 O   0  0  0  0  0  0  0  0  0  0  0  0
   24.0510   17.1420   12.9720 C   0  0  0  0  0  0  0  0  0  0  0  0
   23.0530   17.0000   13.6510 O   0  0  0  0  0  0  0  0  0  0  0  0
   26.6830   15.4190    7.3120 C   0  0  0  0  0  0  0  0  0  0  0  0
   27.9010   15.2870    8.0170 C   0  0  0  0  0  0  0  0  0  0  0  0
   28.9090   14.9130    7.2260 N   0  0  0  0  0  0  0  0  0  0  0  0
   28.3570   14.8020    5.9620 O   0  0  0  0  0  0  0  0  0  0  0  0
   27.0290   15.1000    6.0050 C   0  0  0  0  0  0  0  0  0  0  0  0
   24.5130   11.4150    4.0700 C   0  0  0  0  0  0  0  0  0  0  0  0
   24.4440   10.7090    5.1800 N   0  0  0  0  0  0  0  0  0  0  0  0
   24.7464    9.1845    8.6779 H   0  0  0  0  0  0  0  0  0  0  0  0
   23.8606    9.4192    7.1330 H   0  0  0  0  0  0  0  0  0  0  0  0
   25.4708    8.6230    7.1330 H   0  0  0  0  0  0  0  0  0  0  0  0
   25.0936   11.4605    8.1535 H   0  0  0  0  0  0  0  0  0  0  0  0
   26.6028   10.6209    7.5882 H   0  0  0  0  0  0  0  0  0  0  0  0
   26.7370   13.0253    5.8752 H   0  0  0  0  0  0  0  0  0  0  0  0
   24.0633   15.5413    4.4347 H   0  0  0  0  0  0  0  0  0  0  0  0
   23.3876   16.1011    6.7492 H   0  0  0  0  0  0  0  0  0  0  0  0
   23.0131   15.1474    8.8295 H   0  0  0  0  0  0  0  0  0  0  0  0
   22.3185   15.6947   11.1765 H   0  0  0  0  0  0  0  0  0  0  0  0
   26.8341   17.1257    9.4658 H   0  0  0  0  0  0  0  0  0  0  0  0
   27.1359   17.3686   12.4322 H   0  0  0  0  0  0  0  0  0  0  0  0
   26.4143   18.8795   11.9299 H   0  0  0  0  0  0  0  0  0  0  0  0
   24.3731   18.5669   14.9800 H   0  0  0  0  0  0  0  0  0  0  0  0
   25.9746   16.8700   15.7937 H   0  0  0  0  0  0  0  0  0  0  0  0
   27.3395   17.8382   15.1420 H   0  0  0  0  0  0  0  0  0  0  0  0
   25.3394   18.6975   17.2903 H   0  0  0  0  0  0  0  0  0  0  0  0
   27.0882   18.2952   17.5193 H   0  0  0  0  0  0  0  0  0  0  0  0
   26.1831   21.7111   15.3068 H   0  0  0  0  0  0  0  0  0  0  0  0
   28.0063   15.4717    9.0962 H   0  0  0  0  0  0  0  0  0  0  0  0
   23.9496   11.1953    3.1511 H   0  0  0  0  0  0  0  0  0  0  0  0
  1  2  1  0
  2  3  1  0
  3  4  2  0
  4  5  1  0
  5  6  1  0
  6  7  2  0
  6  8  2  0
  6  9  1  0
  9 10  1  0
 10 11  2  0
 11 12  1  0
 12 13  2  0
 13 14  1  0
 14 15  2  0
 15 16  1  0
 16 17  2  0
 17 18  1  0
 18 19  2  0
 18 20  1  0
 20 21  1  0
 21 22  1  0
 22 23  1  0
 23 24  1  0
 24 25  1  0
 25 26  2  0
 25 27  1  0
 27 28  1  0
 28 29  2  0
 21 30  1  0
 30 31  2  0
 13 32  1  0
 32 33  1  0
 33 34  2  0
 34 35  1  0
 35 36  1  0
  5 37  1  0
 37 38  2  0
 38  3  1  0
 36 10  1  0
 19 14  1  0
 28 22  1  0
 36 32  2  0
 30 17  1  0
  1 39  1  0
  1 40  1  0
  1 41  1  0
  2 42  1  0
  2 43  1  0
  4 44  1  0
 11 45  1  0
 12 46  1  0
 15 47  1  0
 16 48  1  0
 19 49  1  0
 20 50  1  0
 20 51  1  0
 22 52  1  1
 23 53  1  0
 23 54  1  0
 24 55  1  0
 24 56  1  0
 27 57  1  0
 33 58  1  0
 37 59  1  0
M  END
>  <meeko>  (360) 
{"is_sidechain": [true], "free_energy": -12.91, "intermolecular_energy": 0.0, "internal_energy": -12.91, "cluster_size": 20, "cluster_id": 1, "rank_in_cluster": 1}

>  <_RMSD_MCS_to_ref>  (360) 
0.6579979736544275

$$$$
ligand
     RDKit          3D

 58 62  0  0  0  0  0  0  0  0999 V2000
   24.8710    9.6160    7.7820 C   0  0  0  0  0  0  0  0  0  0  0  0
   25.4240   10.9650    7.3490 C   0  0  0  0  0  0  0  0  0  0  0  0
   24.8430   11.4210    6.0560 C   0  0  0  0  0  0  0  0  0  0  0  0
   24.2940   12.6470    5.7360 C   0  0  0  0  0  0  0  0  0  0  0  0
   23.9080   12.5110    4.4320 N   0  0  0  0  0  0  0  0  0  0  0  0
   23.3680   13.7500    3.4230 S   0  0  0  0  0  6  0  0  0  0  0  0
   23.7490   13.3170    2.0900 O   0  0  0  0  0  0  0  0  0  0  0  0
   21.9710   13.9350    3.7720 O   0  0  0  0  0  0  0  0  0  0  0  0
   24.2190   15.1020    3.7780 O   0  0  0  0  0  0  0  0  0  0  0  0
   25.5700   15.1260    3.5440 C   0  0  0  0  0  0  0  0  0  0  0  0
   26.0520   14.9190    2.2500 C   0  0  0  0  0  0  0  0  0  0  0  0
   27.4260   14.9210    2.0120 C   0  0  0  0  0  0  0  0  0  0  0  0
   28.3160   15.1110    3.0670 C   0  0  0  0  0  0  0  0  0  0  0  0
   27.8350   15.2910    4.3660 C   0  0  0  0  0  0  0  0  0  0  0  0
   26.4600   15.2900    4.6120 C   0  0  0  0  0  0  0  0  0  0  0  0
   25.9910   15.4690    5.9530 C   0  0  0  0  0  0  0  0  0  0  0  0
   25.5990   15.6340    7.0770 C   0  0  0  0  0  0  0  0  0  0  0  0
   25.1230   15.8200    8.4110 C   0  0  0  0  0  0  0  0  0  0  0  0
   23.9300   15.1820    8.8220 C   0  0  0  0  0  0  0  0  0  0  0  0
   23.4370   15.3450   10.1220 C   0  0  0  0  0  0  0  0  0  0  0  0
   24.1660   16.1470   10.9760 C   0  0  0  0  0  0  0  0  0  0  0  0
   25.3320   16.7720   10.5740 C   0  0  0  0  0  0  0  0  0  0  0  0
   25.8400   16.6320    9.2970 C   0  0  0  0  0  0  0  0  0  0  0  0
   25.8320   17.5410   11.7100 C   0  0  0  0  0  0  0  0  0  0  0  0
   26.8320   18.2320   11.6830 O   0  0  0  0  0  0  0  0  0  0  0  0
   24.9710   17.3140   12.7500 N   0  0  0  0  0  0  0  0  0  0  0  0
   25.0590   18.0280   14.0140 C   0  0  2  0  0  0  0  0  0  0  0  0
   25.7390   19.3920   13.9200 C   0  0  0  0  0  0  0  0  0  0  0  0
   25.7320   20.0490   15.2910 C   0  0  0  0  0  0  0  0  0  0  0  0
   26.3950   19.1680   16.3270 C   0  0  0  0  0  0  0  0  0  0  0  0
   26.9470   19.6270   17.3210 O   0  0  0  0  0  0  0  0  0  0  0  0
   26.3000   17.8130   16.1310 N   0  0  0  0  0  0  0  0  0  0  0  0
   25.7770   17.1500   15.0440 C   0  0  0  0  0  0  0  0  0  0  0  0
   25.8490   15.9240   14.9670 O   0  0  0  0  0  0  0  0  0  0  0  0
   23.9210   16.5240   12.3670 C   0  0  0  0  0  0  0  0  0  0  0  0
   22.9420   16.1860   13.0040 O   0  0  0  0  0  0  0  0  0  0  0  0
   24.2640   11.2770    3.9900 C   0  0  0  0  0  0  0  0  0  0  0  0
   24.8210   10.5810    4.9600 N   0  0  0  0  0  0  0  0  0  0  0  0
   24.8497    9.5640    8.8806 H   0  0  0  0  0  0  0  0  0  0  0  0
   23.8507    9.4948    7.3893 H   0  0  0  0  0  0  0  0  0  0  0  0
   25.5127    8.8135    7.3893 H   0  0  0  0  0  0  0  0  0  0  0  0
   25.1906   11.7093    8.1246 H   0  0  0  0  0  0  0  0  0  0  0  0
   26.5102   10.8572    7.2124 H   0  0  0  0  0  0  0  0  0  0  0  0
   24.1909   13.5309    6.3827 H   0  0  0  0  0  0  0  0  0  0  0  0
   25.3492   14.7547    1.4199 H   0  0  0  0  0  0  0  0  0  0  0  0
   27.8073   14.7725    0.9910 H   0  0  0  0  0  0  0  0  0  0  0  0
   29.3994   15.1193    2.8766 H   0  0  0  0  0  0  0  0  0  0  0  0
   28.5409   15.4339    5.1974 H   0  0  0  0  0  0  0  0  0  0  0  0
   23.3812   14.5483    8.1098 H   0  0  0  0  0  0  0  0  0  0  0  0
   22.5081   14.8547   10.4488 H   0  0  0  0  0  0  0  0  0  0  0  0
   26.7678   17.1369    8.9899 H   0  0  0  0  0  0  0  0  0  0  0  0
   24.0250   18.2349   14.3270 H   0  0  0  0  0  0  0  0  0  0  0  0
   26.7768   19.2631   13.5790 H   0  0  0  0  0  0  0  0  0  0  0  0
   25.1974   20.0266   13.2031 H   0  0  0  0  0  0  0  0  0  0  0  0
   26.2743   21.0043   15.2332 H   0  0  0  0  0  0  0  0  0  0  0  0
   24.6867   20.2121   15.5921 H   0  0  0  0  0  0  0  0  0  0  0  0
   26.6646   17.2197   16.8900 H   0  0  0  0  0  0  0  0  0  0  0  0
   24.1088   10.9099    2.9648 H   0  0  0  0  0  0  0  0  0  0  0  0
  1  2  1  0
  2  3  1  0
  3  4  2  0
  4  5  1  0
  5  6  1  0
  6  7  2  0
  6  8  2  0
  6  9  1  0
  9 10  1  0
 10 11  2  0
 11 12  1  0
 12 13  2  0
 13 14  1  0
 14 15  2  0
 15 16  1  0
 16 17  3  0
 17 18  1  0
 18 19  2  0
 19 20  1  0
 20 21  2  0
 21 22  1  0
 22 23  2  0
 22 24  1  0
 24 25  2  0
 24 26  1  0
 26 27  1  0
 27 28  1  0
 28 29  1  0
 29 30  1  0
 30 31  2  0
 30 32  1  0
 32 33  1  0
 33 34  2  0
 26 35  1  0
 35 36  2  0
  5 37  1  0
 37 38  2  0
 38  3  1  0
 15 10  1  0
 23 18  1  0
 33 27  1  0
 35 21  1  0
  1 39  1  0
  1 40  1  0
  1 41  1  0
  2 42  1  0
  2 43  1  0
  4 44  1  0
 11 45  1  0
 12 46  1  0
 13 47  1  0
 14 48  1  0
 19 49  1  0
 20 50  1  0
 23 51  1  0
 27 52  1  1
 28 53  1  0
 28 54  1  0
 29 55  1  0
 29 56  1  0
 32 57  1  0
 37 58  1  0
M  END
>  <meeko>  (361) 
{"is_sidechain": [true], "free_energy": -12.91, "intermolecular_energy": 0.0, "internal_energy": -12.91, "cluster_size": 12, "cluster_id": 1, "rank_in_cluster": 1}

>  <_RMSD_MCS_to_ref>  (361) 
1.6825749846432905

$$$$
ligand
     RDKit          3D

 59 64  0  0  0  0  0  0  0  0999 V2000
   24.8710    9.6160    7.7820 C   0  0  0  0  0  0  0  0  0  0  0  0
   25.4240   10.9650    7.3490 C   0  0  0  0  0  0  0  0  0  0  0  0
   26.7840   11.2180    7.8970 C   0  0  0  0  0  0  0  0  0  0  0  0
   28.0100   11.0870    7.2750 C   0  0  0  0  0  0  0  0  0  0  0  0
   28.9140   11.4130    8.2460 N   0  0  0  0  0  0  0  0  0  0  0  0
   30.5610   11.6830    8.0060 S   0  0  0  0  0  6  0  0  0  0  0  0
   30.9890   10.6050    7.1340 O   0  0  0  0  0  0  0  0  0  0  0  0
   31.1070   11.8490    9.3390 O   0  0  0  0  0  0  0  0  0  0  0  0
   30.6680   13.1060    7.1980 O   0  0  0  0  0  0  0  0  0  0  0  0
   29.6050   13.8790    6.9760 C   0  0  0  0  0  0  0  0  0  0  0  0
   28.6180   14.4070    7.7880 C   0  0  0  0  0  0  0  0  0  0  0  0
   27.7380   15.1790    6.9730 C   0  0  0  0  0  0  0  0  0  0  0  0
   26.5780   15.9510    7.1390 C   0  0  0  0  0  0  0  0  0  0  0  0
   25.9340   16.1810    8.4370 C   0  0  0  0  0  0  0  0  0  0  0  0
   24.6540   15.6470    8.7400 C   0  0  0  0  0  0  0  0  0  0  0  0
   24.0400   15.8640    9.9780 C   0  0  0  0  0  0  0  0  0  0  0  0
   24.7340   16.6100   10.9080 C   0  0  0  0  0  0  0  0  0  0  0  0
   25.9950   17.1390   10.6550 C   0  0  0  0  0  0  0  0  0  0  0  0
   26.6050   16.9310    9.4280 C   0  0  0  0  0  0  0  0  0  0  0  0
   26.4740   17.9040   11.8410 C   0  0  0  0  0  0  0  0  0  0  0  0
   25.4250   17.6630   12.8240 N   0  0  0  0  0  0  0  0  0  0  0  0
   25.3780   18.4030   14.0800 C   0  0  2  0  0  0  0  0  0  0  0  0
   26.1570   19.7180   14.0500 C   0  0  0  0  0  0  0  0  0  0  0  0
   25.9900   20.4320   15.3810 C   0  0  0  0  0  0  0  0  0  0  0  0
   26.4340   19.5590   16.5310 C   0  0  0  0  0  0  0  0  0  0  0  0
   26.7820   20.0260   17.6120 O   0  0  0  0  0  0  0  0  0  0  0  0
   26.3500   18.2010   16.3430 N   0  0  0  0  0  0  0  0  0  0  0  0
   25.8390   17.5290   15.2570 C   0  0  0  0  0  0  0  0  0  0  0  0
   25.6740   16.3110   15.3040 O   0  0  0  0  0  0  0  0  0  0  0  0
   24.3450   16.9900   12.2710 C   0  0  0  0  0  0  0  0  0  0  0  0
   23.2630   16.7530   12.7730 O   0  0  0  0  0  0  0  0  0  0  0  0
   25.9930   16.5010    6.0400 N   0  0  0  0  0  0  0  0  0  0  0  0
   26.5760   16.3100    4.8420 C   0  0  0  0  0  0  0  0  0  0  0  0
   27.6900   15.6130    4.5680 N   0  0  0  0  0  0  0  0  0  0  0  0
   28.2160   15.0700    5.6760 C   0  0  0  0  0  0  0  0  0  0  0  0
   29.3410   14.2960    5.6960 N   0  0  0  0  0  0  0  0  0  0  0  0
   28.2470   11.7980    9.3640 C   0  0  0  0  0  0  0  0  0  0  0  0
   26.9480   11.6690    9.1920 N   0  0  0  0  0  0  0  0  0  0  0  0
   24.8497    9.5640    8.8806 H   0  0  0  0  0  0  0  0  0  0  0  0
   23.8507    9.4948    7.3893 H   0  0  0  0  0  0  0  0  0  0  0  0
   25.5127    8.8135    7.3893 H   0  0  0  0  0  0  0  0  0  0  0  0
   25.4744   10.9909    6.2505 H   0  0  0  0  0  0  0  0  0  0  0  0
   24.7531   11.7452    7.7379 H   0  0  0  0  0  0  0  0  0  0  0  0
   28.2123   10.7885    6.2358 H   0  0  0  0  0  0  0  0  0  0  0  0
   28.5273   14.2576    8.8740 H   0  0  0  0  0  0  0  0  0  0  0  0
   24.1311   15.0466    7.9810 H   0  0  0  0  0  0  0  0  0  0  0  0
   23.0432   15.4559   10.2011 H   0  0  0  0  0  0  0  0  0  0  0  0
   27.6035   17.3466    9.2276 H   0  0  0  0  0  0  0  0  0  0  0  0
   27.4434   17.5223   12.1940 H   0  0  0  0  0  0  0  0  0  0  0  0
   26.6403   18.9714   11.6334 H   0  0  0  0  0  0  0  0  0  0  0  0
   24.3217   18.6739   14.2242 H   0  0  0  0  0  0  0  0  0  0  0  0
   27.2230   19.5096   13.8762 H   0  0  0  0  0  0  0  0  0  0  0  0
   25.7729   20.3551   13.2397 H   0  0  0  0  0  0  0  0  0  0  0  0
   26.5955   21.3503   15.3736 H   0  0  0  0  0  0  0  0  0  0  0  0
   24.9246   20.6697   15.5165 H   0  0  0  0  0  0  0  0  0  0  0  0
   26.7137   17.6148   17.1079 H   0  0  0  0  0  0  0  0  0  0  0  0
   26.0788   16.7829    3.9823 H   0  0  0  0  0  0  0  0  0  0  0  0
   29.9089   14.0596    4.8699 H   0  0  0  0  0  0  0  0  0  0  0  0
   28.7246   12.1659   10.2841 H   0  0  0  0  0  0  0  0  0  0  0  0
  1  2  1  0
  2  3  1  0
  3  4  2  0
  4  5  1  0
  5  6  1  0
  6  7  2  0
  6  8  2  0
  6  9  1  0
  9 10  1  0
 10 11  2  0
 11 12  1  0
 12 13  2  0
 13 14  1  0
 14 15  2  0
 15 16  1  0
 16 17  2  0
 17 18  1  0
 18 19  2  0
 18 20  1  0
 20 21  1  0
 21 22  1  0
 22 23  1  0
 23 24  1  0
 24 25  1  0
 25 26  2  0
 25 27  1  0
 27 28  1  0
 28 29  2  0
 21 30  1  0
 30 31  2  0
 13 32  1  0
 32 33  2  0
 33 34  1  0
 34 35  2  0
 35 36  1  0
  5 37  1  0
 37 38  2  0
 38  3  1  0
 36 10  1  0
 35 12  1  0
 19 14  1  0
 28 22  1  0
 30 17  1  0
  1 39  1  0
  1 40  1  0
  1 41  1  0
  2 42  1  0
  2 43  1  0
  4 44  1  0
 11 45  1  0
 15 46  1  0
 16 47  1  0
 19 48  1  0
 20 49  1  0
 20 50  1  0
 22 51  1  1
 23 52  1  0
 23 53  1  0
 24 54  1  0
 24 55  1  0
 27 56  1  0
 33 57  1  0
 36 58  1  0
 37 59  1  0
M  END
>  <meeko>  (362) 
{"is_sidechain": [true], "free_energy": -12.91, "intermolecular_energy": 0.0, "internal_energy": -12.91, "cluster_size": 19, "cluster_id": 1, "rank_in_cluster": 1}

>  <_RMSD_MCS_to_ref>  (362) 
1.7434163376301686

$$$$
ligand
     RDKit          3D

 62 67  0  0  0  0  0  0  0  0999 V2000
   24.8710    9.6170    7.7820 C   0  0  0  0  0  0  0  0  0  0  0  0
   25.4240   10.9640    7.3490 C   0  0  0  0  0  0  0  0  0  0  0  0
   26.8100   11.1900    7.8460 C   0  0  0  0  0  0  0  0  0  0  0  0
   27.2290   11.9430    8.9230 C   0  0  0  0  0  0  0  0  0  0  0  0
   28.5860   11.7980    8.9290 N   0  0  0  0  0  0  0  0  0  0  0  0
   29.6750   12.7130    9.8350 S   0  0  0  0  0  6  0  0  0  0  0  0
   29.1850   12.6300   11.1990 O   0  0  0  0  0  0  0  0  0  0  0  0
   30.9820   12.2000    9.4680 O   0  0  0  0  0  0  0  0  0  0  0  0
   29.5530   14.2450    9.2720 O   0  0  0  0  0  0  0  0  0  0  0  0
   29.0840   14.4210    8.0000 C   0  0  0  0  0  0  0  0  0  0  0  0
   29.8580   14.0090    6.9220 C   0  0  0  0  0  0  0  0  0  0  0  0
   29.3790   14.2070    5.6230 C   0  0  0  0  0  0  0  0  0  0  0  0
   30.1250   13.8180    4.4970 C   0  0  0  0  0  0  0  0  0  0  0  0
   29.6240   14.0300    3.2150 C   0  0  0  0  0  0  0  0  0  0  0  0
   28.3810   14.6310    3.0530 C   0  0  0  0  0  0  0  0  0  0  0  0
   27.6420   15.0160    4.1750 C   0  0  0  0  0  0  0  0  0  0  0  0
   28.1150   14.8160    5.4650 C   0  0  0  0  0  0  0  0  0  0  0  0
   27.3620   15.2040    6.5100 N   0  0  0  0  0  0  0  0  0  0  0  0
   27.8340   14.9940    7.7650 C   0  0  0  0  0  0  0  0  0  0  0  0
   26.9470   15.4370    8.8510 C   0  0  0  0  0  0  0  0  0  0  0  0
   25.7290   14.7600    9.1210 C   0  0  0  0  0  0  0  0  0  0  0  0
   24.9080   15.1310   10.1880 C   0  0  0  0  0  0  0  0  0  0  0  0
   25.3250   16.1890   10.9680 C   0  0  0  0  0  0  0  0  0  0  0  0
   26.5050   16.8860   10.7240 C   0  0  0  0  0  0  0  0  0  0  0  0
   27.3210   16.5270    9.6630 C   0  0  0  0  0  0  0  0  0  0  0  0
   26.7020   17.9420   11.7590 C   0  0  0  0  0  0  0  0  0  0  0  0
   25.4950   17.8220   12.5680 N   0  0  0  0  0  0  0  0  0  0  0  0
   25.3600   18.4120   13.8940 C   0  0  2  0  0  0  0  0  0  0  0  0
   26.1990   19.6740   14.0640 C   0  0  0  0  0  0  0  0  0  0  0  0
   25.9440   20.2670   15.4420 C   0  0  0  0  0  0  0  0  0  0  0  0
   26.2190   19.2560   16.5310 C   0  0  0  0  0  0  0  0  0  0  0  0
   26.6950   19.5740   17.6170 O   0  0  0  0  0  0  0  0  0  0  0  0
   25.8900   17.9540   16.2560 N   0  0  0  0  0  0  0  0  0  0  0  0
   25.7310   17.4090   15.0020 C   0  0  0  0  0  0  0  0  0  0  0  0
   25.8900   16.2040   14.8240 O   0  0  0  0  0  0  0  0  0  0  0  0
   24.7040   16.7540   12.1690 C   0  0  0  0  0  0  0  0  0  0  0  0
   23.7000   16.3230   12.7060 O   0  0  0  0  0  0  0  0  0  0  0  0
   28.9560   11.0380    7.8660 C   0  0  0  0  0  0  0  0  0  0  0  0
   27.8960   10.6340    7.1970 N   0  0  0  0  0  0  0  0  0  0  0  0
   24.8498    9.5653    8.8806 H   0  0  0  0  0  0  0  0  0  0  0  0
   23.8505    9.4962    7.3895 H   0  0  0  0  0  0  0  0  0  0  0  0
   25.5122    8.8140    7.3895 H   0  0  0  0  0  0  0  0  0  0  0  0
   25.4304   11.0074    6.2499 H   0  0  0  0  0  0  0  0  0  0  0  0
   24.7802   11.7465    7.7771 H   0  0  0  0  0  0  0  0  0  0  0  0
   26.6098   12.5278    9.6192 H   0  0  0  0  0  0  0  0  0  0  0  0
   30.8356   13.5329    7.0883 H   0  0  0  0  0  0  0  0  0  0  0  0
   31.1088   13.3440    4.6290 H   0  0  0  0  0  0  0  0  0  0  0  0
   30.2088   13.7235    2.3352 H   0  0  0  0  0  0  0  0  0  0  0  0
   27.9797   14.8033    2.0434 H   0  0  0  0  0  0  0  0  0  0  0  0
   26.6597   15.4900    4.0323 H   0  0  0  0  0  0  0  0  0  0  0  0
   25.4247   13.9236    8.4747 H   0  0  0  0  0  0  0  0  0  0  0  0
   23.9672   14.6010   10.3977 H   0  0  0  0  0  0  0  0  0  0  0  0
   28.2468   17.0843    9.4575 H   0  0  0  0  0  0  0  0  0  0  0  0
   27.6033   17.7472   12.3588 H   0  0  0  0  0  0  0  0  0  0  0  0
   26.8481   18.9472   11.3368 H   0  0  0  0  0  0  0  0  0  0  0  0
   24.2990   18.6864   13.9885 H   0  0  0  0  0  0  0  0  0  0  0  0
   27.2652   19.4224   13.9640 H   0  0  0  0  0  0  0  0  0  0  0  0
   25.9227   20.4065   13.2913 H   0  0  0  0  0  0  0  0  0  0  0  0
   26.6016   21.1370   15.5856 H   0  0  0  0  0  0  0  0  0  0  0  0
   24.8871   20.5658   15.5027 H   0  0  0  0  0  0  0  0  0  0  0  0
   25.7490   17.3266   17.0606 H   0  0  0  0  0  0  0  0  0  0  0  0
   29.9954   10.7941    7.6010 H   0  0  0  0  0  0  0  0  0  0  0  0
  1  2  1  0
  2  3  1  0
  3  4  2  0
  4  5  1  0
  5  6  1  0
  6  7  2  0
  6  8  2  0
  6  9  1  0
  9 10  1  0
 10 11  2  0
 11 12  1  0
 12 13  2  0
 13 14  1  0
 14 15  2  0
 15 16  1  0
 16 17  2  0
 17 18  1  0
 18 19  2  0
 19 20  1  0
 20 21  2  0
 21 22  1  0
 22 23  2  0
 23 24  1  0
 24 25  2  0
 24 26  1  0
 26 27  1  0
 27 28  1  0
 28 29  1  0
 29 30  1  0
 30 31  1  0
 31 32  2  0
 31 33  1  0
 33 34  1  0
 34 35  2  0
 27 36  1  0
 36 37  2  0
  5 38  1  0
 38 39  2  0
 39  3  1  0
 19 10  1  0
 25 20  1  0
 34 28  1  0
 17 12  1  0
 36 23  1  0
  1 40  1  0
  1 41  1  0
  1 42  1  0
  2 43  1  0
  2 44  1  0
  4 45  1  0
 11 46  1  0
 13 47  1  0
 14 48  1  0
 15 49  1  0
 16 50  1  0
 21 51  1  0
 22 52  1  0
 25 53  1  0
 26 54  1  0
 26 55  1  0
 28 56  1  1
 29 57  1  0
 29 58  1  0
 30 59  1  0
 30 60  1  0
 33 61  1  0
 38 62  1  0
M  END
>  <meeko>  (363) 
{"is_sidechain": [true], "free_energy": -12.91, "intermolecular_energy": 0.0, "internal_energy": -12.91, "cluster_size": 9, "cluster_id": 1, "rank_in_cluster": 1}

>  <_RMSD_MCS_to_ref>  (363) 
1.9669520369824665

$$$$
ligand
     RDKit          3D

 60 64  0  0  0  0  0  0  0  0999 V2000
   24.8540    9.4020    7.6050 C   0  0  0  0  0  0  0  0  0  0  0  0
   25.5230   10.7550    7.4270 C   0  0  0  0  0  0  0  0  0  0  0  0
   25.2760   11.3310    6.0770 C   0  0  0  0  0  0  0  0  0  0  0  0
   25.9400   12.3600    5.4380 C   0  0  0  0  0  0  0  0  0  0  0  0
   25.3140   12.4640    4.2300 N   0  0  0  0  0  0  0  0  0  0  0  0
   25.5510   13.6740    3.0880 S   0  0  0  0  0  6  0  0  0  0  0  0
   26.9650   13.6650    2.7690 O   0  0  0  0  0  0  0  0  0  0  0  0
   24.5280   13.4510    2.0840 O   0  0  0  0  0  0  0  0  0  0  0  0
   25.1790   15.1740    3.9530 C   0  0  0  0  0  0  0  0  0  0  0  0
   24.9830   16.3560    3.2370 C   0  0  0  0  0  0  0  0  0  0  0  0
   24.6870   17.5280    3.9290 C   0  0  0  0  0  0  0  0  0  0  0  0
   24.5890   17.5120    5.3230 C   0  0  0  0  0  0  0  0  0  0  0  0
   24.7930   16.3270    6.0460 C   0  0  0  0  0  0  0  0  0  0  0  0
   24.6670   16.3990    7.4500 N   0  0  0  0  0  0  0  0  0  0  0  0
   24.0840   15.4640    8.2860 C   0  0  0  0  0  0  0  0  0  0  0  0
   23.6100   14.3820    7.9640 O   0  0  0  0  0  0  0  0  0  0  0  0
   24.0740   15.8310    9.7300 C   0  0  0  0  0  0  0  0  0  0  0  0
   22.9240   15.6390   10.5320 C   0  0  0  0  0  0  0  0  0  0  0  0
   22.9380   15.9880   11.8850 C   0  0  0  0  0  0  0  0  0  0  0  0
   24.1130   16.5080   12.3980 C   0  0  0  0  0  0  0  0  0  0  0  0
   25.2590   16.6890   11.6280 C   0  0  0  0  0  0  0  0  0  0  0  0
   25.2580   16.3500   10.2850 C   0  0  0  0  0  0  0  0  0  0  0  0
   26.3460   17.2770   12.4630 C   0  0  0  0  0  0  0  0  0  0  0  0
   25.7460   17.3090   13.7900 N   0  0  0  0  0  0  0  0  0  0  0  0
   26.3840   18.0250   14.8900 C   0  0  2  0  0  0  0  0  0  0  0  0
   25.5900   17.9840   16.1950 C   0  0  0  0  0  0  0  0  0  0  0  0
   26.3710   18.7050   17.2830 C   0  0  0  0  0  0  0  0  0  0  0  0
   26.6890   20.1260   16.8790 C   0  0  0  0  0  0  0  0  0  0  0  0
   26.9130   21.0060   17.7050 O   0  0  0  0  0  0  0  0  0  0  0  0
   26.7990   20.3740   15.5350 N   0  0  0  0  0  0  0  0  0  0  0  0
   26.6980   19.4770   14.4960 C   0  0  0  0  0  0  0  0  0  0  0  0
   26.9520   19.8280   13.3440 O   0  0  0  0  0  0  0  0  0  0  0  0
   24.4060   16.9540   13.7640 C   0  0  0  0  0  0  0  0  0  0  0  0
   23.5870   17.0050   14.6610 O   0  0  0  0  0  0  0  0  0  0  0  0
   25.0980   15.1570    5.3510 C   0  0  0  0  0  0  0  0  0  0  0  0
   24.3000   11.5630    4.1760 C   0  0  0  0  0  0  0  0  0  0  0  0
   24.2550   10.8480    5.2810 N   0  0  0  0  0  0  0  0  0  0  0  0
   24.7464    9.1845    8.6779 H   0  0  0  0  0  0  0  0  0  0  0  0
   23.8606    9.4192    7.1330 H   0  0  0  0  0  0  0  0  0  0  0  0
   25.4708    8.6230    7.1330 H   0  0  0  0  0  0  0  0  0  0  0  0
   25.1288   11.4476    8.1852 H   0  0  0  0  0  0  0  0  0  0  0  0
   26.6079   10.6128    7.5402 H   0  0  0  0  0  0  0  0  0  0  0  0
   26.7814   12.9589    5.8166 H   0  0  0  0  0  0  0  0  0  0  0  0
   25.0613   16.3619    2.1398 H   0  0  0  0  0  0  0  0  0  0  0  0
   24.5302   18.4670    3.3778 H   0  0  0  0  0  0  0  0  0  0  0  0
   24.3487   18.4411    5.8607 H   0  0  0  0  0  0  0  0  0  0  0  0
   25.0517   17.2408    7.9019 H   0  0  0  0  0  0  0  0  0  0  0  0
   22.0129   15.2121   10.0873 H   0  0  0  0  0  0  0  0  0  0  0  0
   22.0485   15.8544   12.5182 H   0  0  0  0  0  0  0  0  0  0  0  0
   26.1593   16.4831    9.6686 H   0  0  0  0  0  0  0  0  0  0  0  0
   27.2447   16.6428   12.4488 H   0  0  0  0  0  0  0  0  0  0  0  0
   26.6826   18.2634   12.1113 H   0  0  0  0  0  0  0  0  0  0  0  0
   27.3253   17.4905   15.0853 H   0  0  0  0  0  0  0  0  0  0  0  0
   24.6190   18.4802   16.0498 H   0  0  0  0  0  0  0  0  0  0  0  0
   25.4248   16.9379   16.4924 H   0  0  0  0  0  0  0  0  0  0  0  0
   25.7711   18.7201   18.2049 H   0  0  0  0  0  0  0  0  0  0  0  0
   27.3180   18.1692   17.4444 H   0  0  0  0  0  0  0  0  0  0  0  0
   26.9796   21.3528   15.2701 H   0  0  0  0  0  0  0  0  0  0  0  0
   25.2749   14.2209    5.9009 H   0  0  0  0  0  0  0  0  0  0  0  0
   23.6110   11.4463    3.3265 H   0  0  0  0  0  0  0  0  0  0  0  0
  1  2  1  0
  2  3  1  0
  3  4  2  0
  4  5  1  0
  5  6  1  0
  6  7  2  0
  6  8  2  0
  6  9  1  0
  9 10  2  0
 10 11  1  0
 11 12  2  0
 12 13  1  0
 13 14  1  0
 14 15  1  0
 15 16  2  0
 15 17  1  0
 17 18  2  0
 18 19  1  0
 19 20  2  0
 20 21  1  0
 21 22  2  0
 21 23  1  0
 23 24  1  0
 24 25  1  0
 25 26  1  0
 26 27  1  0
 27 28  1  0
 28 29  2  0
 28 30  1  0
 30 31  1  0
 31 32  2  0
 24 33  1  0
 33 34  2  0
 13 35  2  0
  5 36  1  0
 36 37  2  0
 37  3  1  0
 35  9  1  0
 22 17  1  0
 31 25  1  0
 33 20  1  0
  1 38  1  0
  1 39  1  0
  1 40  1  0
  2 41  1  0
  2 42  1  0
  4 43  1  0
 10 44  1  0
 11 45  1  0
 12 46  1  0
 14 47  1  0
 18 48  1  0
 19 49  1  0
 22 50  1  0
 23 51  1  0
 23 52  1  0
 25 53  1  1
 26 54  1  0
 26 55  1  0
 27 56  1  0
 27 57  1  0
 30 58  1  0
 35 59  1  0
 36 60  1  0
M  END
>  <meeko>  (364) 
{"is_sidechain": [true], "free_energy": -12.9, "intermolecular_energy": 0.0, "internal_energy": -12.9, "cluster_size": 19, "cluster_id": 1, "rank_in_cluster": 1}

>  <_RMSD_MCS_to_ref>  (364) 
1.3288935247039169

$$$$
ligand
     RDKit          3D

 59 64  0  0  0  0  0  0  0  0999 V2000
   24.8710    9.6160    7.7820 C   0  0  0  0  0  0  0  0  0  0  0  0
   25.4240   10.9650    7.3490 C   0  0  0  0  0  0  0  0  0  0  0  0
   26.8190   11.1780    7.8240 C   0  0  0  0  0  0  0  0  0  0  0  0
   27.2800   12.0160    8.8190 C   0  0  0  0  0  0  0  0  0  0  0  0
   28.6280   11.7920    8.8530 N   0  0  0  0  0  0  0  0  0  0  0  0
   29.7570   12.7740    9.6370 S   0  0  0  0  0  6  0  0  0  0  0  0
   31.0460   12.2980    9.1790 O   0  0  0  0  0  0  0  0  0  0  0  0
   29.3760   12.7240   11.0360 O   0  0  0  0  0  0  0  0  0  0  0  0
   29.4740   14.2870    9.0800 O   0  0  0  0  0  0  0  0  0  0  0  0
   28.8810   14.4220    7.8490 C   0  0  0  0  0  0  0  0  0  0  0  0
   29.6030   14.0150    6.7270 C   0  0  0  0  0  0  0  0  0  0  0  0
   28.9350   14.1950    5.5270 C   0  0  0  0  0  0  0  0  0  0  0  0
   29.3900   13.8830    4.2830 O   0  0  0  0  0  0  0  0  0  0  0  0
   28.4020   14.2290    3.4120 C   0  0  0  0  0  0  0  0  0  0  0  0
   27.3210   14.7600    4.0810 C   0  0  0  0  0  0  0  0  0  0  0  0
   27.6610   14.7420    5.4520 C   0  0  0  0  0  0  0  0  0  0  0  0
   26.9610   15.1510    6.5360 N   0  0  0  0  0  0  0  0  0  0  0  0
   27.5980   14.9920    7.7270 C   0  0  0  0  0  0  0  0  0  0  0  0
   26.8150   15.4450    8.8970 C   0  0  0  0  0  0  0  0  0  0  0  0
   25.5580   14.8460    9.1790 C   0  0  0  0  0  0  0  0  0  0  0  0
   24.8080   15.1990   10.3060 C   0  0  0  0  0  0  0  0  0  0  0  0
   25.3390   16.1560   11.1430 C   0  0  0  0  0  0  0  0  0  0  0  0
   26.5590   16.7790   10.8930 C   0  0  0  0  0  0  0  0  0  0  0  0
   27.2960   16.4500    9.7650 C   0  0  0  0  0  0  0  0  0  0  0  0
   26.8700   17.7500   11.9850 C   0  0  0  0  0  0  0  0  0  0  0  0
   25.7600   17.5490   12.9070 N   0  0  0  0  0  0  0  0  0  0  0  0
   25.5530   18.3480   14.1070 C   0  0  1  0  0  0  0  0  0  0  0  0
   26.2990   17.7800   15.3120 C   0  0  0  0  0  0  0  0  0  0  0  0
   25.9640   18.6010   16.5460 C   0  0  0  0  0  0  0  0  0  0  0  0
   26.2770   20.0630   16.3280 C   0  0  0  0  0  0  0  0  0  0  0  0
   26.7110   20.7830   17.2220 O   0  0  0  0  0  0  0  0  0  0  0  0
   26.0350   20.5610   15.0730 N   0  0  0  0  0  0  0  0  0  0  0  0
   25.9510   19.8200   13.9150 C   0  0  0  0  0  0  0  0  0  0  0  0
   26.1910   20.3410   12.8280 O   0  0  0  0  0  0  0  0  0  0  0  0
   24.8080   16.6780   12.4070 C   0  0  0  0  0  0  0  0  0  0  0  0
   23.7420   16.3650   12.9000 O   0  0  0  0  0  0  0  0  0  0  0  0
   28.9510   10.9070    7.8750 C   0  0  0  0  0  0  0  0  0  0  0  0
   27.8710   10.5090    7.2330 N   0  0  0  0  0  0  0  0  0  0  0  0
   24.8497    9.5640    8.8806 H   0  0  0  0  0  0  0  0  0  0  0  0
   23.8507    9.4948    7.3893 H   0  0  0  0  0  0  0  0  0  0  0  0
   25.5127    8.8135    7.3893 H   0  0  0  0  0  0  0  0  0  0  0  0
   25.4117   11.0171    6.2503 H   0  0  0  0  0  0  0  0  0  0  0  0
   24.7920   11.7481    7.7932 H   0  0  0  0  0  0  0  0  0  0  0  0
   26.6951   12.7075    9.4433 H   0  0  0  0  0  0  0  0  0  0  0  0
   30.6149   13.5882    6.7897 H   0  0  0  0  0  0  0  0  0  0  0  0
   28.4593   14.1016    2.3209 H   0  0  0  0  0  0  0  0  0  0  0  0
   26.3827   15.1244    3.6372 H   0  0  0  0  0  0  0  0  0  0  0  0
   25.1633   14.0831    8.4918 H   0  0  0  0  0  0  0  0  0  0  0  0
   23.8344   14.7317   10.5153 H   0  0  0  0  0  0  0  0  0  0  0  0
   28.2435   16.9655    9.5491 H   0  0  0  0  0  0  0  0  0  0  0  0
   27.8324   17.5160   12.4636 H   0  0  0  0  0  0  0  0  0  0  0  0
   26.9687   18.7883   11.6353 H   0  0  0  0  0  0  0  0  0  0  0  0
   24.4712   18.3028   14.3011 H   0  0  0  0  0  0  0  0  0  0  0  0
   25.9949   16.7351   15.4727 H   0  0  0  0  0  0  0  0  0  0  0  0
   27.3824   17.8213   15.1262 H   0  0  0  0  0  0  0  0  0  0  0  0
   24.8925   18.4925   16.7697 H   0  0  0  0  0  0  0  0  0  0  0  0
   26.5732   18.2346   17.3854 H   0  0  0  0  0  0  0  0  0  0  0  0
   25.9045   21.5793   14.9892 H   0  0  0  0  0  0  0  0  0  0  0  0
   29.9732   10.5689    7.6497 H   0  0  0  0  0  0  0  0  0  0  0  0
  1  2  1  0
  2  3  1  0
  3  4  2  0
  4  5  1  0
  5  6  1  0
  6  7  2  0
  6  8  2  0
  6  9  1  0
  9 10  1  0
 10 11  2  0
 11 12  1  0
 12 13  1  0
 13 14  1  0
 14 15  2  0
 15 16  1  0
 16 17  1  0
 17 18  2  0
 18 19  1  0
 19 20  2  0
 20 21  1  0
 21 22  2  0
 22 23  1  0
 23 24  2  0
 23 25  1  0
 25 26  1  0
 26 27  1  0
 27 28  1  0
 28 29  1  0
 29 30  1  0
 30 31  2  0
 30 32  1  0
 32 33  1  0
 33 34  2  0
 26 35  1  0
 35 36  2  0
  5 37  1  0
 37 38  2  0
 38  3  1  0
 18 10  1  0
 24 19  1  0
 33 27  1  0
 16 12  2  0
 35 22  1  0
  1 39  1  0
  1 40  1  0
  1 41  1  0
  2 42  1  0
  2 43  1  0
  4 44  1  0
 11 45  1  0
 14 46  1  0
 15 47  1  0
 20 48  1  0
 21 49  1  0
 24 50  1  0
 25 51  1  0
 25 52  1  0
 27 53  1  1
 28 54  1  0
 28 55  1  0
 29 56  1  0
 29 57  1  0
 32 58  1  0
 37 59  1  0
M  END
>  <meeko>  (365) 
{"is_sidechain": [true], "free_energy": -12.9, "intermolecular_energy": 0.0, "internal_energy": -12.9, "cluster_size": 16, "cluster_id": 1, "rank_in_cluster": 1}

>  <_RMSD_MCS_to_ref>  (365) 
1.242454129196686

$$$$
ligand
     RDKit          3D

 57 61  0  0  0  0  0  0  0  0999 V2000
   24.8540    9.4020    7.6050 C   0  0  0  0  0  0  0  0  0  0  0  0
   25.5230   10.7550    7.4270 C   0  0  0  0  0  0  0  0  0  0  0  0
   25.0470   11.4600    6.2060 C   0  0  0  0  0  0  0  0  0  0  0  0
   25.4600   12.6710    5.6860 C   0  0  0  0  0  0  0  0  0  0  0  0
   24.7060   12.8260    4.5570 N   0  0  0  0  0  0  0  0  0  0  0  0
   24.6680   14.1900    3.5610 S   0  0  0  0  0  6  0  0  0  0  0  0
   24.6310   13.6380    2.2190 O   0  0  0  0  0  0  0  0  0  0  0  0
   23.6230   15.0130    4.1400 O   0  0  0  0  0  0  0  0  0  0  0  0
   26.2220   14.9740    3.8130 C   0  0  0  0  0  0  0  0  0  0  0  0
   27.0620   14.9270    2.7340 N   0  0  0  0  0  0  0  0  0  0  0  0
   28.2590   15.5340    2.8890 C   0  0  0  0  0  0  0  0  0  0  0  0
   28.6120   16.1700    4.0650 C   0  0  0  0  0  0  0  0  0  0  0  0
   27.7840   16.2220    5.1360 N   0  0  0  0  0  0  0  0  0  0  0  0
   26.5630   15.6000    4.9950 C   0  0  0  0  0  0  0  0  0  0  0  0
   25.6970   15.6760    6.2150 C   0  0  0  0  0  0  0  0  0  0  0  0
   24.5480   15.2690    6.2010 O   0  0  0  0  0  0  0  0  0  0  0  0
   26.3490   16.2370    7.3010 N   0  0  0  0  0  0  0  0  0  0  0  0
   25.8510   16.4560    8.5980 C   0  0  0  0  0  0  0  0  0  0  0  0
   24.5710   15.9170    8.8840 C   0  0  0  0  0  0  0  0  0  0  0  0
   23.9760   16.0730   10.1410 C   0  0  0  0  0  0  0  0  0  0  0  0
   24.6900   16.7730   11.0900 C   0  0  0  0  0  0  0  0  0  0  0  0
   25.9350   17.3050   10.8200 C   0  0  0  0  0  0  0  0  0  0  0  0
   26.5440   17.1660    9.5850 C   0  0  0  0  0  0  0  0  0  0  0  0
   26.3890   17.9910   12.0290 C   0  0  0  0  0  0  0  0  0  0  0  0
   27.4230   18.6230   12.1150 O   0  0  0  0  0  0  0  0  0  0  0  0
   25.4230   17.7950   12.9800 N   0  0  0  0  0  0  0  0  0  0  0  0
   25.3990   18.4280   14.2880 C   0  0  1  0  0  0  0  0  0  0  0  0
   26.3470   17.8000   15.3080 C   0  0  0  0  0  0  0  0  0  0  0  0
   26.2000   18.5250   16.6380 C   0  0  0  0  0  0  0  0  0  0  0  0
   26.4500   20.0070   16.4870 C   0  0  0  0  0  0  0  0  0  0  0  0
   26.8520   20.7020   17.4160 O   0  0  0  0  0  0  0  0  0  0  0  0
   26.1420   20.5630   15.2700 N   0  0  0  0  0  0  0  0  0  0  0  0
   25.7050   19.9220   14.1330 C   0  0  0  0  0  0  0  0  0  0  0  0
   25.5180   20.5540   13.0940 O   0  0  0  0  0  0  0  0  0  0  0  0
   24.3530   17.1090   12.4700 C   0  0  0  0  0  0  0  0  0  0  0  0
   23.3090   16.8060   13.0150 O   0  0  0  0  0  0  0  0  0  0  0  0
   23.8630   11.7670    4.4370 C   0  0  0  0  0  0  0  0  0  0  0  0
   24.0500   10.9110    5.4210 N   0  0  0  0  0  0  0  0  0  0  0  0
   24.7464    9.1845    8.6779 H   0  0  0  0  0  0  0  0  0  0  0  0
   23.8606    9.4192    7.1330 H   0  0  0  0  0  0  0  0  0  0  0  0
   25.4708    8.6230    7.1330 H   0  0  0  0  0  0  0  0  0  0  0  0
   25.3009   11.3785    8.3056 H   0  0  0  0  0  0  0  0  0  0  0  0
   26.6046   10.5859    7.3198 H   0  0  0  0  0  0  0  0  0  0  0  0
   26.2219   13.3546    6.0887 H   0  0  0  0  0  0  0  0  0  0  0  0
   28.9749   15.5219    2.0539 H   0  0  0  0  0  0  0  0  0  0  0  0
   29.5992   16.6503    4.1333 H   0  0  0  0  0  0  0  0  0  0  0  0
   27.3225   16.5312    7.1378 H   0  0  0  0  0  0  0  0  0  0  0  0
   24.0335   15.3636    8.0999 H   0  0  0  0  0  0  0  0  0  0  0  0
   22.9826   15.6556   10.3620 H   0  0  0  0  0  0  0  0  0  0  0  0
   27.5361   17.5977    9.3865 H   0  0  0  0  0  0  0  0  0  0  0  0
   24.3873   18.2733   14.6911 H   0  0  0  0  0  0  0  0  0  0  0  0
   26.0959   16.7370   15.4384 H   0  0  0  0  0  0  0  0  0  0  0  0
   27.3841   17.8865   14.9518 H   0  0  0  0  0  0  0  0  0  0  0  0
   25.1797   18.3709   17.0190 H   0  0  0  0  0  0  0  0  0  0  0  0
   26.9434   18.1176   17.3390 H   0  0  0  0  0  0  0  0  0  0  0  0
   26.2513   21.5847   15.1992 H   0  0  0  0  0  0  0  0  0  0  0  0
   23.1262   11.6417    3.6298 H   0  0  0  0  0  0  0  0  0  0  0  0
  1  2  1  0
  2  3  1  0
  3  4  2  0
  4  5  1  0
  5  6  1  0
  6  7  2  0
  6  8  2  0
  6  9  1  0
  9 10  2  0
 10 11  1  0
 11 12  2  0
 12 13  1  0
 13 14  2  0
 14 15  1  0
 15 16  2  0
 15 17  1  0
 17 18  1  0
 18 19  2  0
 19 20  1  0
 20 21  2  0
 21 22  1  0
 22 23  2  0
 22 24  1  0
 24 25  2  0
 24 26  1  0
 26 27  1  0
 27 28  1  0
 28 29  1  0
 29 30  1  0
 30 31  2  0
 30 32  1  0
 32 33  1  0
 33 34  2  0
 26 35  1  0
 35 36  2  0
  5 37  1  0
 37 38  2  0
 38  3  1  0
 14  9  1  0
 23 18  1  0
 33 27  1  0
 35 21  1  0
  1 39  1  0
  1 40  1  0
  1 41  1  0
  2 42  1  0
  2 43  1  0
  4 44  1  0
 11 45  1  0
 12 46  1  0
 17 47  1  0
 19 48  1  0
 20 49  1  0
 23 50  1  0
 27 51  1  1
 28 52  1  0
 28 53  1  0
 29 54  1  0
 29 55  1  0
 32 56  1  0
 37 57  1  0
M  END
>  <meeko>  (366) 
{"is_sidechain": [true], "free_energy": -12.89, "intermolecular_energy": 0.0, "internal_energy": -12.89, "cluster_size": 18, "cluster_id": 1, "rank_in_cluster": 1}

>  <_RMSD_MCS_to_ref>  (366) 
0.6697473404202509

$$$$
ligand
     RDKit          3D

 64 69  0  0  0  0  0  0  0  0999 V2000
   24.8540    9.4020    7.6050 C   0  0  0  0  0  0  0  0  0  0  0  0
   25.5230   10.7550    7.4270 C   0  0  0  0  0  0  0  0  0  0  0  0
   26.9780   10.6300    7.1410 C   0  0  0  0  0  0  0  0  0  0  0  0
   28.0520   11.0380    7.9060 C   0  0  0  0  0  0  0  0  0  0  0  0
   29.1440   10.6520    7.1850 N   0  0  0  0  0  0  0  0  0  0  0  0
   30.7400   11.0650    7.5120 S   0  0  0  0  0  6  0  0  0  0  0  0
   31.3820   11.2160    6.2200 O   0  0  0  0  0  0  0  0  0  0  0  0
   31.2010   10.1120    8.5030 O   0  0  0  0  0  0  0  0  0  0  0  0
   30.6040   12.6600    8.2760 C   0  0  0  0  0  0  0  0  0  0  0  0
   31.7100   13.1920    8.9670 C   0  0  0  0  0  0  0  0  0  0  0  0
   31.6190   14.4460    9.5730 C   0  0  0  0  0  0  0  0  0  0  0  0
   30.4210   15.1360    9.4800 C   0  0  0  0  0  0  0  0  0  0  0  0
   29.3200   14.5960    8.8040 C   0  0  0  0  0  0  0  0  0  0  0  0
   29.3900   13.3530    8.1980 C   0  0  0  0  0  0  0  0  0  0  0  0
   28.1560   15.5330    8.8790 C   0  0  0  0  0  0  0  0  0  0  0  0
   28.6890   16.6850    9.6020 N   0  0  0  0  0  0  0  0  0  0  0  0
   27.8330   17.6810   10.0190 C   0  0  0  0  0  0  0  0  0  0  0  0
   28.1640   18.8600   10.1170 O   0  0  0  0  0  0  0  0  0  0  0  0
   26.4340   17.3260   10.3270 C   0  0  0  0  0  0  0  0  0  0  0  0
   25.5980   16.7320    9.3690 C   0  0  0  0  0  0  0  0  0  0  0  0
   24.2660   16.4040    9.6870 C   0  0  0  0  0  0  0  0  0  0  0  0
   23.7610   16.6540   10.9640 C   0  0  0  0  0  0  0  0  0  0  0  0
   24.6190   17.2120   11.8950 C   0  0  0  0  0  0  0  0  0  0  0  0
   25.9410   17.5400   11.6020 C   0  0  0  0  0  0  0  0  0  0  0  0
   26.6080   18.1180   12.8040 C   0  0  0  0  0  0  0  0  0  0  0  0
   25.5560   18.0420   13.8120 N   0  0  0  0  0  0  0  0  0  0  0  0
   25.6220   18.7420   15.0900 C   0  0  1  0  0  0  0  0  0  0  0  0
   26.6790   18.1580   16.0230 C   0  0  0  0  0  0  0  0  0  0  0  0
   26.6290   18.8840   17.3580 C   0  0  0  0  0  0  0  0  0  0  0  0
   26.7950   20.3750   17.1770 C   0  0  0  0  0  0  0  0  0  0  0  0
   27.3840   21.0750   17.9960 O   0  0  0  0  0  0  0  0  0  0  0  0
   26.2310   20.9240   16.0540 N   0  0  0  0  0  0  0  0  0  0  0  0
   25.8910   20.2450   14.9070 C   0  0  0  0  0  0  0  0  0  0  0  0
   25.8240   20.8370   13.8320 O   0  0  0  0  0  0  0  0  0  0  0  0
   24.3590   17.5790   13.2900 C   0  0  0  0  0  0  0  0  0  0  0  0
   23.2810   17.4880   13.8440 O   0  0  0  0  0  0  0  0  0  0  0  0
   30.0740   16.4800   10.0380 C   0  0  0  0  0  0  0  0  0  0  0  0
   28.7320   10.0880    6.0210 C   0  0  0  0  0  0  0  0  0  0  0  0
   27.4170   10.0500    5.9660 N   0  0  0  0  0  0  0  0  0  0  0  0
   24.7464    9.1845    8.6779 H   0  0  0  0  0  0  0  0  0  0  0  0
   23.8606    9.4192    7.1330 H   0  0  0  0  0  0  0  0  0  0  0  0
   25.4708    8.6230    7.1330 H   0  0  0  0  0  0  0  0  0  0  0  0
   25.0413   11.2808    6.5894 H   0  0  0  0  0  0  0  0  0  0  0  0
   25.4108   11.3133    8.3681 H   0  0  0  0  0  0  0  0  0  0  0  0
   28.0320   11.5563    8.8760 H   0  0  0  0  0  0  0  0  0  0  0  0
   32.6466   12.6185    9.0291 H   0  0  0  0  0  0  0  0  0  0  0  0
   32.4768   14.8758   10.1110 H   0  0  0  0  0  0  0  0  0  0  0  0
   28.5226   12.9252    7.6739 H   0  0  0  0  0  0  0  0  0  0  0  0
   27.8192   15.8223    7.8726 H   0  0  0  0  0  0  0  0  0  0  0  0
   27.2793   15.0872    9.3716 H   0  0  0  0  0  0  0  0  0  0  0  0
   25.9863   16.5210    8.3617 H   0  0  0  0  0  0  0  0  0  0  0  0
   23.6189   15.9475    8.9236 H   0  0  0  0  0  0  0  0  0  0  0  0
   22.7183   16.4159   11.2210 H   0  0  0  0  0  0  0  0  0  0  0  0
   27.4847   17.5222   13.0979 H   0  0  0  0  0  0  0  0  0  0  0  0
   26.9933   19.1362   12.6463 H   0  0  0  0  0  0  0  0  0  0  0  0
   24.6331   18.6040   15.5515 H   0  0  0  0  0  0  0  0  0  0  0  0
   26.4797   17.0876   16.1794 H   0  0  0  0  0  0  0  0  0  0  0  0
   27.6754   18.2821   15.5737 H   0  0  0  0  0  0  0  0  0  0  0  0
   25.6588   18.6868   17.8373 H   0  0  0  0  0  0  0  0  0  0  0  0
   27.4541   18.5158   17.9853 H   0  0  0  0  0  0  0  0  0  0  0  0
   26.0451   21.9369   16.0709 H   0  0  0  0  0  0  0  0  0  0  0  0
   30.7345   17.2583    9.6280 H   0  0  0  0  0  0  0  0  0  0  0  0
   30.1914   16.5335   11.1304 H   0  0  0  0  0  0  0  0  0  0  0  0
   29.4032    9.7147    5.2335 H   0  0  0  0  0  0  0  0  0  0  0  0
  1  2  1  0
  2  3  1  0
  3  4  2  0
  4  5  1  0
  5  6  1  0
  6  7  2  0
  6  8  2  0
  6  9  1  0
  9 10  2  0
 10 11  1  0
 11 12  2  0
 12 13  1  0
 13 14  2  0
 13 15  1  0
 15 16  1  0
 16 17  1  0
 17 18  2  0
 17 19  1  0
 19 20  2  0
 20 21  1  0
 21 22  2  0
 22 23  1  0
 23 24  2  0
 24 25  1  0
 25 26  1  0
 26 27  1  0
 27 28  1  0
 28 29  1  0
 29 30  1  0
 30 31  2  0
 30 32  1  0
 32 33  1  0
 33 34  2  0
 26 35  1  0
 35 36  2  0
 16 37  1  0
  5 38  1  0
 38 39  2  0
 39  3  1  0
 14  9  1  0
 24 19  1  0
 33 27  1  0
 37 12  1  0
 35 23  1  0
  1 40  1  0
  1 41  1  0
  1 42  1  0
  2 43  1  0
  2 44  1  0
  4 45  1  0
 10 46  1  0
 11 47  1  0
 14 48  1  0
 15 49  1  0
 15 50  1  0
 20 51  1  0
 21 52  1  0
 22 53  1  0
 25 54  1  0
 25 55  1  0
 27 56  1  1
 28 57  1  0
 28 58  1  0
 29 59  1  0
 29 60  1  0
 32 61  1  0
 37 62  1  0
 37 63  1  0
 38 64  1  0
M  END
>  <meeko>  (367) 
{"is_sidechain": [true], "free_energy": -12.89, "intermolecular_energy": 0.0, "internal_energy": -12.89, "cluster_size": 10, "cluster_id": 1, "rank_in_cluster": 1}

>  <_RMSD_MCS_to_ref>  (367) 
0.9494917353803317

$$$$
ligand
     RDKit          3D

 55 59  0  0  0  0  0  0  0  0999 V2000
   24.8540    9.4020    7.6050 C   0  0  0  0  0  0  0  0  0  0  0  0
   25.5230   10.7550    7.4270 C   0  0  0  0  0  0  0  0  0  0  0  0
   25.2720   11.3340    6.0790 C   0  0  0  0  0  0  0  0  0  0  0  0
   25.9340   12.3620    5.4380 C   0  0  0  0  0  0  0  0  0  0  0  0
   25.2840   12.4820    4.2420 N   0  0  0  0  0  0  0  0  0  0  0  0
   25.6710   13.5790    3.0230 S   0  0  0  0  0  6  0  0  0  0  0  0
   26.6710   12.9330    2.1910 O   0  0  0  0  0  0  0  0  0  0  0  0
   24.3780   13.9390    2.4650 O   0  0  0  0  0  0  0  0  0  0  0  0
   26.2940   14.9270    3.6850 O   0  0  0  0  0  0  0  0  0  0  0  0
   26.0440   15.2140    4.9970 C   0  0  0  0  0  0  0  0  0  0  0  0
   24.7780   15.6480    5.3480 C   0  0  0  0  0  0  0  0  0  0  0  0
   24.4240   15.9110    6.6310 N   0  0  0  0  0  0  0  0  0  0  0  0
   25.3790   15.7130    7.5790 C   0  0  0  0  0  0  0  0  0  0  0  0
   24.9860   15.9980    8.9740 C   0  0  0  0  0  0  0  0  0  0  0  0
   23.7610   15.4910    9.4920 C   0  0  0  0  0  0  0  0  0  0  0  0
   23.3360   15.7350   10.8060 C   0  0  0  0  0  0  0  0  0  0  0  0
   24.1530   16.4920   11.6210 C   0  0  0  0  0  0  0  0  0  0  0  0
   25.3560   16.9840   11.1300 C   0  0  0  0  0  0  0  0  0  0  0  0
   25.7940   16.7620    9.8350 C   0  0  0  0  0  0  0  0  0  0  0  0
   26.0090   17.7420   12.2020 C   0  0  0  0  0  0  0  0  0  0  0  0
   27.0420   18.3680   12.0690 O   0  0  0  0  0  0  0  0  0  0  0  0
   25.2150   17.6080   13.3300 N   0  0  0  0  0  0  0  0  0  0  0  0
   25.3810   18.3910   14.5500 C   0  0  1  0  0  0  0  0  0  0  0  0
   26.4700   17.8600   15.4810 C   0  0  0  0  0  0  0  0  0  0  0  0
   26.5140   18.7100   16.7410 C   0  0  0  0  0  0  0  0  0  0  0  0
   26.7370   20.1680   16.4130 C   0  0  0  0  0  0  0  0  0  0  0  0
   27.2140   20.9550   17.2250 O   0  0  0  0  0  0  0  0  0  0  0  0
   26.3020   20.5960   15.1840 N   0  0  0  0  0  0  0  0  0  0  0  0
   25.6240   19.8750   14.2280 C   0  0  0  0  0  0  0  0  0  0  0  0
   25.1630   20.4370   13.2360 O   0  0  0  0  0  0  0  0  0  0  0  0
   23.9620   16.9260   13.0340 C   0  0  0  0  0  0  0  0  0  0  0  0
   26.6480   15.2690    7.2010 C   0  0  0  0  0  0  0  0  0  0  0  0
   27.0030   15.0040    5.9140 N   0  0  0  0  0  0  0  0  0  0  0  0
   24.2910   11.5600    4.1760 C   0  0  0  0  0  0  0  0  0  0  0  0
   24.2550   10.8440    5.2830 N   0  0  0  0  0  0  0  0  0  0  0  0
   24.7464    9.1845    8.6779 H   0  0  0  0  0  0  0  0  0  0  0  0
   23.8606    9.4192    7.1330 H   0  0  0  0  0  0  0  0  0  0  0  0
   25.4708    8.6230    7.1330 H   0  0  0  0  0  0  0  0  0  0  0  0
   25.1317   11.4464    8.1878 H   0  0  0  0  0  0  0  0  0  0  0  0
   26.6082   10.6118    7.5360 H   0  0  0  0  0  0  0  0  0  0  0  0
   26.7883   12.9494    5.8055 H   0  0  0  0  0  0  0  0  0  0  0  0
   24.0283   15.7853    4.5548 H   0  0  0  0  0  0  0  0  0  0  0  0
   23.1217   14.8831    8.8350 H   0  0  0  0  0  0  0  0  0  0  0  0
   22.3803   15.3351   11.1759 H   0  0  0  0  0  0  0  0  0  0  0  0
   26.7528   17.1742    9.4875 H   0  0  0  0  0  0  0  0  0  0  0  0
   24.4320   18.2897   15.0969 H   0  0  0  0  0  0  0  0  0  0  0  0
   26.2471   16.8168   15.7494 H   0  0  0  0  0  0  0  0  0  0  0  0
   27.4440   17.9060   14.9719 H   0  0  0  0  0  0  0  0  0  0  0  0
   25.5592   18.6054   17.2771 H   0  0  0  0  0  0  0  0  0  0  0  0
   27.3510   18.3628   17.3646 H   0  0  0  0  0  0  0  0  0  0  0  0
   26.5082   21.5772   14.9482 H   0  0  0  0  0  0  0  0  0  0  0  0
   23.8140   16.0617   13.6982 H   0  0  0  0  0  0  0  0  0  0  0  0
   23.0745   17.5590   13.1807 H   0  0  0  0  0  0  0  0  0  0  0  0
   27.4032   15.1253    7.9878 H   0  0  0  0  0  0  0  0  0  0  0  0
   23.6122   11.4283    3.3205 H   0  0  0  0  0  0  0  0  0  0  0  0
  1  2  1  0
  2  3  1  0
  3  4  2  0
  4  5  1  0
  5  6  1  0
  6  7  2  0
  6  8  2  0
  6  9  1  0
  9 10  1  0
 10 11  2  0
 11 12  1  0
 12 13  2  0
 13 14  1  0
 14 15  2  0
 15 16  1  0
 16 17  2  0
 17 18  1  0
 18 19  2  0
 18 20  1  0
 20 21  2  0
 20 22  1  0
 22 23  1  0
 23 24  1  0
 24 25  1  0
 25 26  1  0
 26 27  2  0
 26 28  1  0
 28 29  1  0
 29 30  2  0
 22 31  1  0
 13 32  1  0
 32 33  2  0
  5 34  1  0
 34 35  2  0
 35  3  1  0
 33 10  1  0
 19 14  1  0
 29 23  1  0
 31 17  1  0
  1 36  1  0
  1 37  1  0
  1 38  1  0
  2 39  1  0
  2 40  1  0
  4 41  1  0
 11 42  1  0
 15 43  1  0
 16 44  1  0
 19 45  1  0
 23 46  1  1
 24 47  1  0
 24 48  1  0
 25 49  1  0
 25 50  1  0
 28 51  1  0
 31 52  1  0
 31 53  1  0
 32 54  1  0
 34 55  1  0
M  END
>  <meeko>  (368) 
{"is_sidechain": [true], "free_energy": -12.88, "intermolecular_energy": 0.0, "internal_energy": -12.88, "cluster_size": 20, "cluster_id": 1, "rank_in_cluster": 1}

>  <_RMSD_MCS_to_ref>  (368) 
0.5130162440573062

$$$$
ligand
     RDKit          3D

 59 63  0  0  0  0  0  0  0  0999 V2000
   24.8540    9.4020    7.6050 C   0  0  0  0  0  0  0  0  0  0  0  0
   25.5230   10.7550    7.4270 C   0  0  0  0  0  0  0  0  0  0  0  0
   27.0050   10.6670    7.5230 C   0  0  0  0  0  0  0  0  0  0  0  0
   27.9440   11.6760    7.4280 C   0  0  0  0  0  0  0  0  0  0  0  0
   29.1410   11.0330    7.5670 N   0  0  0  0  0  0  0  0  0  0  0  0
   30.6400   11.7810    7.7090 S   0  0  0  0  0  6  0  0  0  0  0  0
   31.4280   10.9560    8.6020 O   0  0  0  0  0  0  0  0  0  0  0  0
   31.0470   12.0640    6.3440 O   0  0  0  0  0  0  0  0  0  0  0  0
   30.3060   13.3180    8.5260 C   0  0  0  0  0  0  0  0  0  0  0  0
   31.3570   14.1950    8.8020 C   0  0  0  0  0  0  0  0  0  0  0  0
   31.0900   15.4020    9.4480 C   0  0  0  0  0  0  0  0  0  0  0  0
   29.7810   15.7370    9.8160 C   0  0  0  0  0  0  0  0  0  0  0  0
   28.7250   14.8610    9.5390 C   0  0  0  0  0  0  0  0  0  0  0  0
   27.3780   15.1620    9.8850 N   0  0  0  0  0  0  0  0  0  0  0  0
   27.1210   15.9270   10.9940 N   0  0  0  0  0  0  0  0  0  0  0  0
   25.7750   16.0610   11.0560 C   0  0  0  0  0  0  0  0  0  0  0  0
   25.1330   16.8370   12.1250 C   0  0  0  0  0  0  0  0  0  0  0  0
   23.9470   17.1510   12.1170 O   0  0  0  0  0  0  0  0  0  0  0  0
   26.0030   17.1810   13.1310 N   0  0  0  0  0  0  0  0  0  0  0  0
   25.6620   18.0860   14.2090 C   0  0  1  0  0  0  0  0  0  0  0  0
   26.2870   17.6570   15.5320 C   0  0  0  0  0  0  0  0  0  0  0  0
   25.9240   18.6610   16.6140 C   0  0  0  0  0  0  0  0  0  0  0  0
   26.3410   20.0610   16.2270 C   0  0  0  0  0  0  0  0  0  0  0  0
   26.6790   20.8990   17.0580 O   0  0  0  0  0  0  0  0  0  0  0  0
   26.2840   20.3730   14.8920 N   0  0  0  0  0  0  0  0  0  0  0  0
   26.1600   19.4900   13.8470 C   0  0  0  0  0  0  0  0  0  0  0  0
   26.4130   19.8380   12.6930 O   0  0  0  0  0  0  0  0  0  0  0  0
   25.1820   15.3760    9.9970 C   0  0  0  0  0  0  0  0  0  0  0  0
   26.2020   14.8060    9.2910 C   0  0  0  0  0  0  0  0  0  0  0  0
   25.7570   14.0160    8.1300 C   0  0  0  0  0  0  0  0  0  0  0  0
   24.2100   13.9600    8.3870 C   0  0  0  0  0  0  0  0  0  0  0  0
   23.8600   15.0790    9.4220 C   0  0  0  0  0  0  0  0  0  0  0  0
   28.9990   13.6380    8.9000 C   0  0  0  0  0  0  0  0  0  0  0  0
   28.9160    9.7100    7.7730 C   0  0  0  0  0  0  0  0  0  0  0  0
   27.6240    9.4530    7.7460 N   0  0  0  0  0  0  0  0  0  0  0  0
   24.7464    9.1845    8.6779 H   0  0  0  0  0  0  0  0  0  0  0  0
   23.8606    9.4192    7.1330 H   0  0  0  0  0  0  0  0  0  0  0  0
   25.4708    8.6230    7.1330 H   0  0  0  0  0  0  0  0  0  0  0  0
   25.2554   11.1550    6.4379 H   0  0  0  0  0  0  0  0  0  0  0  0
   25.1712   11.4141    8.2344 H   0  0  0  0  0  0  0  0  0  0  0  0
   27.7679   12.7510    7.2754 H   0  0  0  0  0  0  0  0  0  0  0  0
   32.3862   13.9363    8.5126 H   0  0  0  0  0  0  0  0  0  0  0  0
   31.9140   16.0961    9.6701 H   0  0  0  0  0  0  0  0  0  0  0  0
   29.5820   16.6919   10.3245 H   0  0  0  0  0  0  0  0  0  0  0  0
   26.9488   16.7733   13.1179 H   0  0  0  0  0  0  0  0  0  0  0  0
   24.5694   18.0752   14.3361 H   0  0  0  0  0  0  0  0  0  0  0  0
   25.9070   16.6633   15.8117 H   0  0  0  0  0  0  0  0  0  0  0  0
   27.3808   17.6146   15.4237 H   0  0  0  0  0  0  0  0  0  0  0  0
   24.8353   18.6417   16.7699 H   0  0  0  0  0  0  0  0  0  0  0  0
   26.4545   18.3836   17.5368 H   0  0  0  0  0  0  0  0  0  0  0  0
   26.3400   21.3722   14.6483 H   0  0  0  0  0  0  0  0  0  0  0  0
   25.9917   14.5223    7.1821 H   0  0  0  0  0  0  0  0  0  0  0  0
   26.2390   13.0315    8.0376 H   0  0  0  0  0  0  0  0  0  0  0  0
   23.6672   14.1362    7.4466 H   0  0  0  0  0  0  0  0  0  0  0  0
   23.9189   12.9723    8.7738 H   0  0  0  0  0  0  0  0  0  0  0  0
   23.4299   15.9625    8.9276 H   0  0  0  0  0  0  0  0  0  0  0  0
   23.1061   14.7805   10.1653 H   0  0  0  0  0  0  0  0  0  0  0  0
   28.1813   12.9316    8.6943 H   0  0  0  0  0  0  0  0  0  0  0  0
   29.7018    8.9584    7.9391 H   0  0  0  0  0  0  0  0  0  0  0  0
  1  2  1  0
  2  3  1  0
  3  4  2  0
  4  5  1  0
  5  6  1  0
  6  7  2  0
  6  8  2  0
  6  9  1  0
  9 10  2  0
 10 11  1  0
 11 12  2  0
 12 13  1  0
 13 14  1  0
 14 15  1  0
 15 16  2  0
 16 17  1  0
 17 18  2  0
 17 19  1  0
 19 20  1  0
 20 21  1  0
 21 22  1  0
 22 23  1  0
 23 24  2  0
 23 25  1  0
 25 26  1  0
 26 27  2  0
 16 28  1  0
 28 29  2  0
 29 30  1  0
 30 31  1  0
 31 32  1  0
 13 33  2  0
  5 34  1  0
 34 35  2  0
 35  3  1  0
 33  9  1  0
 29 14  1  0
 26 20  1  0
 32 28  1  0
  1 36  1  0
  1 37  1  0
  1 38  1  0
  2 39  1  0
  2 40  1  0
  4 41  1  0
 10 42  1  0
 11 43  1  0
 12 44  1  0
 19 45  1  0
 20 46  1  1
 21 47  1  0
 21 48  1  0
 22 49  1  0
 22 50  1  0
 25 51  1  0
 30 52  1  0
 30 53  1  0
 31 54  1  0
 31 55  1  0
 32 56  1  0
 32 57  1  0
 33 58  1  0
 34 59  1  0
M  END
>  <meeko>  (369) 
{"is_sidechain": [true], "free_energy": -12.88, "intermolecular_energy": 0.0, "internal_energy": -12.88, "cluster_size": 19, "cluster_id": 1, "rank_in_cluster": 1}

>  <_RMSD_MCS_to_ref>  (369) 
1.1084665584090077

$$$$
ligand
     RDKit          3D

 61 66  0  0  0  0  0  0  0  0999 V2000
   24.8710    9.6160    7.7820 C   0  0  0  0  0  0  0  0  0  0  0  0
   25.4240   10.9650    7.3490 C   0  0  0  0  0  0  0  0  0  0  0  0
   26.7080   10.8350    6.6080 C   0  0  0  0  0  0  0  0  0  0  0  0
   27.1150   11.4840    5.4580 C   0  0  0  0  0  0  0  0  0  0  0  0
   28.3660   10.9900    5.2180 N   0  0  0  0  0  0  0  0  0  0  0  0
   29.4220   11.5030    4.0010 S   0  0  0  0  0  6  0  0  0  0  0  0
   28.5680   11.6560    2.8370 O   0  0  0  0  0  0  0  0  0  0  0  0
   30.5050   10.5340    4.0000 O   0  0  0  0  0  0  0  0  0  0  0  0
   30.0330   12.9690    4.3670 O   0  0  0  0  0  0  0  0  0  0  0  0
   29.9040   13.3670    5.6610 C   0  0  0  0  0  0  0  0  0  0  0  0
   30.9750   13.3400    6.5300 C   0  0  0  0  0  0  0  0  0  0  0  0
   30.8440   13.6820    7.8330 N   0  0  0  0  0  0  0  0  0  0  0  0
   29.6110   14.0500    8.2410 C   0  0  0  0  0  0  0  0  0  0  0  0
   29.3690   14.3550    9.5740 C   0  0  0  0  0  0  0  0  0  0  0  0
   28.0840   14.6800   10.0240 C   0  0  0  0  0  0  0  0  0  0  0  0
   27.0070   14.7260    9.1330 C   0  0  0  0  0  0  0  0  0  0  0  0
   25.6370   14.9980    9.5920 C   0  0  0  0  0  0  0  0  0  0  0  0
   24.5180   14.6240    8.8210 C   0  0  0  0  0  0  0  0  0  0  0  0
   23.1990   14.8850    9.2470 C   0  0  0  0  0  0  0  0  0  0  0  0
   22.9600   15.5300   10.4580 C   0  0  0  0  0  0  0  0  0  0  0  0
   24.0610   15.8920   11.2090 C   0  0  0  0  0  0  0  0  0  0  0  0
   25.3730   15.6420   10.8020 C   0  0  0  0  0  0  0  0  0  0  0  0
   26.3170   16.1990   11.8210 C   0  0  0  0  0  0  0  0  0  0  0  0
   25.4300   16.6580   12.8760 N   0  0  0  0  0  0  0  0  0  0  0  0
   25.9470   17.4260   14.0030 C   0  0  2  0  0  0  0  0  0  0  0  0
   24.9190   17.6580   15.1080 C   0  0  0  0  0  0  0  0  0  0  0  0
   25.5760   18.4070   16.2560 C   0  0  0  0  0  0  0  0  0  0  0  0
   26.1790   19.7100   15.7850 C   0  0  0  0  0  0  0  0  0  0  0  0
   26.3580   20.6590   16.5430 O   0  0  0  0  0  0  0  0  0  0  0  0
   26.5910   19.7620   14.4770 N   0  0  0  0  0  0  0  0  0  0  0  0
   26.5490   18.7590   13.5360 C   0  0  0  0  0  0  0  0  0  0  0  0
   27.0610   18.9260   12.4290 O   0  0  0  0  0  0  0  0  0  0  0  0
   24.0990   16.5790   12.5060 C   0  0  0  0  0  0  0  0  0  0  0  0
   23.1220   16.9900   13.1010 O   0  0  0  0  0  0  0  0  0  0  0  0
   27.2710   14.4680    7.7810 C   0  0  0  0  0  0  0  0  0  0  0  0
   28.5310   14.1080    7.3300 C   0  0  0  0  0  0  0  0  0  0  0  0
   28.6820   13.7820    6.0350 N   0  0  0  0  0  0  0  0  0  0  0  0
   28.6900   10.1060    6.2000 C   0  0  0  0  0  0  0  0  0  0  0  0
   27.6980    9.9830    7.0610 N   0  0  0  0  0  0  0  0  0  0  0  0
   24.8497    9.5640    8.8806 H   0  0  0  0  0  0  0  0  0  0  0  0
   23.8507    9.4948    7.3893 H   0  0  0  0  0  0  0  0  0  0  0  0
   25.5127    8.8135    7.3893 H   0  0  0  0  0  0  0  0  0  0  0  0
   24.6872   11.4571    6.6972 H   0  0  0  0  0  0  0  0  0  0  0  0
   25.6160   11.5578    8.2555 H   0  0  0  0  0  0  0  0  0  0  0  0
   26.5586   12.2286    4.8698 H   0  0  0  0  0  0  0  0  0  0  0  0
   31.9619   13.0323    6.1539 H   0  0  0  0  0  0  0  0  0  0  0  0
   30.2036   14.3409   10.2904 H   0  0  0  0  0  0  0  0  0  0  0  0
   27.9197   14.9014   11.0889 H   0  0  0  0  0  0  0  0  0  0  0  0
   24.6779   14.1140    7.8596 H   0  0  0  0  0  0  0  0  0  0  0  0
   22.3516   14.5764    8.6172 H   0  0  0  0  0  0  0  0  0  0  0  0
   21.9369   15.7422   10.8020 H   0  0  0  0  0  0  0  0  0  0  0  0
   27.0019   15.4219   12.1912 H   0  0  0  0  0  0  0  0  0  0  0  0
   26.9629   16.9952   11.4224 H   0  0  0  0  0  0  0  0  0  0  0  0
   26.7426   16.8082   14.4451 H   0  0  0  0  0  0  0  0  0  0  0  0
   24.0822   18.2524   14.7125 H   0  0  0  0  0  0  0  0  0  0  0  0
   24.5404   16.6901   15.4682 H   0  0  0  0  0  0  0  0  0  0  0  0
   24.8192   18.6194   17.0255 H   0  0  0  0  0  0  0  0  0  0  0  0
   26.3808   17.7791   16.6660 H   0  0  0  0  0  0  0  0  0  0  0  0
   26.9792   20.6622   14.1610 H   0  0  0  0  0  0  0  0  0  0  0  0
   26.4505   14.5541    7.0534 H   0  0  0  0  0  0  0  0  0  0  0  0
   29.6471    9.5680    6.2669 H   0  0  0  0  0  0  0  0  0  0  0  0
  1  2  1  0
  2  3  1  0
  3  4  2  0
  4  5  1  0
  5  6  1  0
  6  7  2  0
  6  8  2  0
  6  9  1  0
  9 10  1  0
 10 11  2  0
 11 12  1  0
 12 13  2  0
 13 14  1  0
 14 15  2  0
 15 16  1  0
 16 17  1  0
 17 18  2  0
 18 19  1  0
 19 20  2  0
 20 21  1  0
 21 22  2  0
 22 23  1  0
 23 24  1  0
 24 25  1  0
 25 26  1  0
 26 27  1  0
 27 28  1  0
 28 29  2  0
 28 30  1  0
 30 31  1  0
 31 32  2  0
 24 33  1  0
 33 34  2  0
 16 35  2  0
 35 36  1  0
 36 37  2  0
  5 38  1  0
 38 39  2  0
 39  3  1  0
 37 10  1  0
 36 13  1  0
 22 17  1  0
 31 25  1  0
 33 21  1  0
  1 40  1  0
  1 41  1  0
  1 42  1  0
  2 43  1  0
  2 44  1  0
  4 45  1  0
 11 46  1  0
 14 47  1  0
 15 48  1  0
 18 49  1  0
 19 50  1  0
 20 51  1  0
 23 52  1  0
 23 53  1  0
 25 54  1  1
 26 55  1  0
 26 56  1  0
 27 57  1  0
 27 58  1  0
 30 59  1  0
 35 60  1  0
 38 61  1  0
M  END
>  <meeko>  (370) 
{"is_sidechain": [true], "free_energy": -12.88, "intermolecular_energy": 0.0, "internal_energy": -12.88, "cluster_size": 18, "cluster_id": 1, "rank_in_cluster": 1}

>  <_RMSD_MCS_to_ref>  (370) 
1.3348623524543641

$$$$
ligand
     RDKit          3D

 63 68  0  0  0  0  0  0  0  0999 V2000
   24.8710    9.6160    7.7820 C   0  0  0  0  0  0  0  0  0  0  0  0
   25.4240   10.9650    7.3490 C   0  0  0  0  0  0  0  0  0  0  0  0
   26.8500   10.8780    6.9350 C   0  0  0  0  0  0  0  0  0  0  0  0
   27.4020   11.0390    5.6780 C   0  0  0  0  0  0  0  0  0  0  0  0
   28.7430   10.9090    5.8890 N   0  0  0  0  0  0  0  0  0  0  0  0
   29.9380   11.0180    4.7200 S   0  0  0  0  0  6  0  0  0  0  0  0
   29.6650    9.9270    3.8060 O   0  0  0  0  0  0  0  0  0  0  0  0
   31.2030   11.1480    5.4120 O   0  0  0  0  0  0  0  0  0  0  0  0
   29.7700   12.4710    3.7440 C   0  0  0  0  0  0  0  0  0  0  0  0
   30.3570   12.7870    2.5280 C   0  0  0  0  0  0  0  0  0  0  0  0
   29.6550   13.8980    2.0530 C   0  0  0  0  0  0  0  0  0  0  0  0
   28.7020   14.2800    2.8990 N   0  0  0  0  0  0  0  0  0  0  0  0
   28.8900   13.5090    4.0050 N   0  0  0  0  0  0  0  0  0  0  0  0
   28.1580   13.8260    5.1810 C   0  0  0  0  0  0  0  0  0  0  0  0
   26.7750   14.0020    5.1580 C   0  0  0  0  0  0  0  0  0  0  0  0
   26.1050   14.4090    6.3170 C   0  0  0  0  0  0  0  0  0  0  0  0
   26.7950   14.6210    7.5200 C   0  0  0  0  0  0  0  0  0  0  0  0
   26.0920   15.1140    8.7140 C   0  0  0  0  0  0  0  0  0  0  0  0
   24.7520   14.7330    8.9740 C   0  0  0  0  0  0  0  0  0  0  0  0
   24.0710   15.1890   10.1070 C   0  0  0  0  0  0  0  0  0  0  0  0
   24.7580   16.0230   10.9660 C   0  0  0  0  0  0  0  0  0  0  0  0
   26.0730   16.4170   10.7400 C   0  0  0  0  0  0  0  0  0  0  0  0
   26.7530   15.9720    9.6190 C   0  0  0  0  0  0  0  0  0  0  0  0
   26.5260   17.3300   11.8270 C   0  0  0  0  0  0  0  0  0  0  0  0
   25.3920   17.3260   12.7420 N   0  0  0  0  0  0  0  0  0  0  0  0
   25.3140   18.2660   13.8550 C   0  0  2  0  0  0  0  0  0  0  0  0
   25.7560   19.6840   13.4950 C   0  0  0  0  0  0  0  0  0  0  0  0
   25.5770   20.5890   14.7030 C   0  0  0  0  0  0  0  0  0  0  0  0
   26.3380   20.0650   15.8990 C   0  0  0  0  0  0  0  0  0  0  0  0
   26.6880   20.7950   16.8230 O   0  0  0  0  0  0  0  0  0  0  0  0
   26.5500   18.7110   15.9490 N   0  0  0  0  0  0  0  0  0  0  0  0
   26.0950   17.7500   15.0750 C   0  0  0  0  0  0  0  0  0  0  0  0
   26.2300   16.5560   15.3390 O   0  0  0  0  0  0  0  0  0  0  0  0
   24.3040   16.6470   12.2140 C   0  0  0  0  0  0  0  0  0  0  0  0
   23.1740   16.5700   12.6540 O   0  0  0  0  0  0  0  0  0  0  0  0
   28.1720   14.3600    7.5470 C   0  0  0  0  0  0  0  0  0  0  0  0
   28.8490   13.9540    6.3930 C   0  0  0  0  0  0  0  0  0  0  0  0
   28.9660   10.5870    7.1880 C   0  0  0  0  0  0  0  0  0  0  0  0
   27.8350   10.5950    7.8630 N   0  0  0  0  0  0  0  0  0  0  0  0
   24.8497    9.5640    8.8806 H   0  0  0  0  0  0  0  0  0  0  0  0
   23.8507    9.4948    7.3893 H   0  0  0  0  0  0  0  0  0  0  0  0
   25.5127    8.8135    7.3893 H   0  0  0  0  0  0  0  0  0  0  0  0
   24.8303   11.3360    6.5006 H   0  0  0  0  0  0  0  0  0  0  0  0
   25.3618   11.6485    8.2086 H   0  0  0  0  0  0  0  0  0  0  0  0
   26.8806   11.2281    4.7280 H   0  0  0  0  0  0  0  0  0  0  0  0
   31.1977   12.2719    2.0403 H   0  0  0  0  0  0  0  0  0  0  0  0
   29.8650   14.3965    1.0952 H   0  0  0  0  0  0  0  0  0  0  0  0
   26.2118   13.8212    4.2306 H   0  0  0  0  0  0  0  0  0  0  0  0
   25.0167   14.5657    6.2843 H   0  0  0  0  0  0  0  0  0  0  0  0
   24.2364   14.0640    8.2693 H   0  0  0  0  0  0  0  0  0  0  0  0
   23.0298   14.8950   10.3057 H   0  0  0  0  0  0  0  0  0  0  0  0
   27.7924   16.2824    9.4365 H   0  0  0  0  0  0  0  0  0  0  0  0
   27.4323   16.9445   12.3169 H   0  0  0  0  0  0  0  0  0  0  0  0
   26.7948   18.3349   11.4693 H   0  0  0  0  0  0  0  0  0  0  0  0
   24.2465   18.3313   14.1124 H   0  0  0  0  0  0  0  0  0  0  0  0
   26.8149   19.6742   13.1972 H   0  0  0  0  0  0  0  0  0  0  0  0
   25.1455   20.0591   12.6604 H   0  0  0  0  0  0  0  0  0  0  0  0
   25.9472   21.5948   14.4553 H   0  0  0  0  0  0  0  0  0  0  0  0
   24.5075   20.6200   14.9583 H   0  0  0  0  0  0  0  0  0  0  0  0
   27.1195   18.3716   16.7372 H   0  0  0  0  0  0  0  0  0  0  0  0
   28.7277   14.4762    8.4892 H   0  0  0  0  0  0  0  0  0  0  0  0
   29.9260   13.7347    6.4368 H   0  0  0  0  0  0  0  0  0  0  0  0
   29.9515   10.3525    7.6166 H   0  0  0  0  0  0  0  0  0  0  0  0
  1  2  1  0
  2  3  1  0
  3  4  2  0
  4  5  1  0
  5  6  1  0
  6  7  2  0
  6  8  2  0
  6  9  1  0
  9 10  2  0
 10 11  1  0
 11 12  2  0
 12 13  1  0
 13 14  1  0
 14 15  2  0
 15 16  1  0
 16 17  2  0
 17 18  1  0
 18 19  2  0
 19 20  1  0
 20 21  2  0
 21 22  1  0
 22 23  2  0
 22 24  1  0
 24 25  1  0
 25 26  1  0
 26 27  1  0
 27 28  1  0
 28 29  1  0
 29 30  2  0
 29 31  1  0
 31 32  1  0
 32 33  2  0
 25 34  1  0
 34 35  2  0
 17 36  1  0
 36 37  2  0
  5 38  1  0
 38 39  2  0
 39  3  1  0
 13  9  1  0
 37 14  1  0
 23 18  1  0
 32 26  1  0
 34 21  1  0
  1 40  1  0
  1 41  1  0
  1 42  1  0
  2 43  1  0
  2 44  1  0
  4 45  1  0
 10 46  1  0
 11 47  1  0
 15 48  1  0
 16 49  1  0
 19 50  1  0
 20 51  1  0
 23 52  1  0
 24 53  1  0
 24 54  1  0
 26 55  1  1
 27 56  1  0
 27 57  1  0
 28 58  1  0
 28 59  1  0
 31 60  1  0
 36 61  1  0
 37 62  1  0
 38 63  1  0
M  END
>  <meeko>  (371) 
{"is_sidechain": [true], "free_energy": -12.87, "intermolecular_energy": 0.0, "internal_energy": -12.87, "cluster_size": 20, "cluster_id": 1, "rank_in_cluster": 1}

>  <_RMSD_MCS_to_ref>  (371) 
1.789994001754137

$$$$
ligand
     RDKit          3D

 62 67  0  0  0  0  0  0  0  0999 V2000
   24.8710    9.6160    7.7820 C   0  0  0  0  0  0  0  0  0  0  0  0
   25.4240   10.9650    7.3490 C   0  0  0  0  0  0  0  0  0  0  0  0
   26.8260   11.1700    7.8060 C   0  0  0  0  0  0  0  0  0  0  0  0
   27.3110   12.0490    8.7540 C   0  0  0  0  0  0  0  0  0  0  0  0
   28.6540   11.7960    8.7930 N   0  0  0  0  0  0  0  0  0  0  0  0
   29.8080   12.7870    9.5250 S   0  0  0  0  0  6  0  0  0  0  0  0
   29.5000   12.7250   10.9410 O   0  0  0  0  0  0  0  0  0  0  0  0
   31.0790   12.3250    9.0000 O   0  0  0  0  0  0  0  0  0  0  0  0
   29.4800   14.2980    8.9930 O   0  0  0  0  0  0  0  0  0  0  0  0
   28.8340   14.4340    7.7970 C   0  0  0  0  0  0  0  0  0  0  0  0
   29.4850   14.0470    6.6310 C   0  0  0  0  0  0  0  0  0  0  0  0
   28.8320   14.1860    5.4020 C   0  0  0  0  0  0  0  0  0  0  0  0
   29.4410   13.8000    4.1960 C   0  0  0  0  0  0  0  0  0  0  0  0
   28.7630   13.9490    2.9870 C   0  0  0  0  0  0  0  0  0  0  0  0
   27.4790   14.4820    2.9810 C   0  0  0  0  0  0  0  0  0  0  0  0
   26.8770   14.8640    4.1840 C   0  0  0  0  0  0  0  0  0  0  0  0
   27.5290   14.7270    5.4030 C   0  0  0  0  0  0  0  0  0  0  0  0
   26.9070   15.1130    6.5300 N   0  0  0  0  0  0  0  0  0  0  0  0
   27.5510   14.9810    7.7180 C   0  0  0  0  0  0  0  0  0  0  0  0
   26.7830   15.4280    8.8980 C   0  0  0  0  0  0  0  0  0  0  0  0
   25.5150   14.8530    9.1730 C   0  0  0  0  0  0  0  0  0  0  0  0
   24.7740   15.2040   10.3050 C   0  0  0  0  0  0  0  0  0  0  0  0
   25.3270   16.1380   11.1570 C   0  0  0  0  0  0  0  0  0  0  0  0
   26.5590   16.7370   10.9130 C   0  0  0  0  0  0  0  0  0  0  0  0
   27.2870   16.4080    9.7810 C   0  0  0  0  0  0  0  0  0  0  0  0
   26.8870   17.6930   12.0130 C   0  0  0  0  0  0  0  0  0  0  0  0
   25.7750   17.5050   12.9350 N   0  0  0  0  0  0  0  0  0  0  0  0
   25.5570   18.3290   14.1160 C   0  0  1  0  0  0  0  0  0  0  0  0
   26.2570   17.7680   15.3510 C   0  0  0  0  0  0  0  0  0  0  0  0
   25.9080   18.6220   16.5600 C   0  0  0  0  0  0  0  0  0  0  0  0
   26.2600   20.0710   16.3210 C   0  0  0  0  0  0  0  0  0  0  0  0
   26.6890   20.7980   17.2120 O   0  0  0  0  0  0  0  0  0  0  0  0
   26.0630   20.5490   15.0510 N   0  0  0  0  0  0  0  0  0  0  0  0
   26.0040   19.7860   13.9070 C   0  0  0  0  0  0  0  0  0  0  0  0
   26.3050   20.2740   12.8200 O   0  0  0  0  0  0  0  0  0  0  0  0
   24.8030   16.6610   12.4230 C   0  0  0  0  0  0  0  0  0  0  0  0
   23.7260   16.3750   12.9070 O   0  0  0  0  0  0  0  0  0  0  0  0
   28.9530   10.8550    7.8590 C   0  0  0  0  0  0  0  0  0  0  0  0
   27.8600   10.4480    7.2450 N   0  0  0  0  0  0  0  0  0  0  0  0
   24.8497    9.5640    8.8806 H   0  0  0  0  0  0  0  0  0  0  0  0
   23.8507    9.4948    7.3893 H   0  0  0  0  0  0  0  0  0  0  0  0
   25.5127    8.8135    7.3893 H   0  0  0  0  0  0  0  0  0  0  0  0
   25.3971   11.0231    6.2509 H   0  0  0  0  0  0  0  0  0  0  0  0
   24.8014   11.7481    7.8063 H   0  0  0  0  0  0  0  0  0  0  0  0
   26.7454   12.7854    9.3438 H   0  0  0  0  0  0  0  0  0  0  0  0
   30.5041   13.6353    6.6747 H   0  0  0  0  0  0  0  0  0  0  0  0
   30.4570   13.3785    4.2058 H   0  0  0  0  0  0  0  0  0  0  0  0
   29.2411   13.6467    2.0436 H   0  0  0  0  0  0  0  0  0  0  0  0
   26.9374   14.6031    2.0313 H   0  0  0  0  0  0  0  0  0  0  0  0
   25.8605   15.2840    4.1645 H   0  0  0  0  0  0  0  0  0  0  0  0
   25.1033   14.1093    8.4748 H   0  0  0  0  0  0  0  0  0  0  0  0
   23.7909   14.7544   10.5082 H   0  0  0  0  0  0  0  0  0  0  0  0
   28.2463   16.9043    9.5726 H   0  0  0  0  0  0  0  0  0  0  0  0
   27.8455   17.4381   12.4888 H   0  0  0  0  0  0  0  0  0  0  0  0
   27.0029   18.7321   11.6713 H   0  0  0  0  0  0  0  0  0  0  0  0
   24.4698   18.3122   14.2825 H   0  0  0  0  0  0  0  0  0  0  0  0
   25.9243   16.7338   15.5236 H   0  0  0  0  0  0  0  0  0  0  0  0
   27.3457   17.7802   15.1940 H   0  0  0  0  0  0  0  0  0  0  0  0
   24.8287   18.5421   16.7570 H   0  0  0  0  0  0  0  0  0  0  0  0
   26.4860   18.2594   17.4228 H   0  0  0  0  0  0  0  0  0  0  0  0
   25.9493   21.5671   14.9439 H   0  0  0  0  0  0  0  0  0  0  0  0
   29.9664   10.4845    7.6452 H   0  0  0  0  0  0  0  0  0  0  0  0
  1  2  1  0
  2  3  1  0
  3  4  2  0
  4  5  1  0
  5  6  1  0
  6  7  2  0
  6  8  2  0
  6  9  1  0
  9 10  1  0
 10 11  2  0
 11 12  1  0
 12 13  2  0
 13 14  1  0
 14 15  2  0
 15 16  1  0
 16 17  2  0
 17 18  1  0
 18 19  2  0
 19 20  1  0
 20 21  2  0
 21 22  1  0
 22 23  2  0
 23 24  1  0
 24 25  2  0
 24 26  1  0
 26 27  1  0
 27 28  1  0
 28 29  1  0
 29 30  1  0
 30 31  1  0
 31 32  2  0
 31 33  1  0
 33 34  1  0
 34 35  2  0
 27 36  1  0
 36 37  2  0
  5 38  1  0
 38 39  2  0
 39  3  1  0
 19 10  1  0
 25 20  1  0
 34 28  1  0
 17 12  1  0
 36 23  1  0
  1 40  1  0
  1 41  1  0
  1 42  1  0
  2 43  1  0
  2 44  1  0
  4 45  1  0
 11 46  1  0
 13 47  1  0
 14 48  1  0
 15 49  1  0
 16 50  1  0
 21 51  1  0
 22 52  1  0
 25 53  1  0
 26 54  1  0
 26 55  1  0
 28 56  1  1
 29 57  1  0
 29 58  1  0
 30 59  1  0
 30 60  1  0
 33 61  1  0
 38 62  1  0
M  END
>  <meeko>  (372) 
{"is_sidechain": [true], "free_energy": -12.87, "intermolecular_energy": 0.0, "internal_energy": -12.87, "cluster_size": 12, "cluster_id": 1, "rank_in_cluster": 1}

>  <_RMSD_MCS_to_ref>  (372) 
1.23977103149183

$$$$
ligand
     RDKit          3D

 59 64  0  0  0  0  0  0  0  0999 V2000
   24.8540    9.4020    7.6050 C   0  0  0  0  0  0  0  0  0  0  0  0
   25.5230   10.7550    7.4270 C   0  0  0  0  0  0  0  0  0  0  0  0
   27.0060   10.6460    7.3660 C   0  0  0  0  0  0  0  0  0  0  0  0
   27.9120   11.4740    6.7330 C   0  0  0  0  0  0  0  0  0  0  0  0
   29.1240   10.8960    6.9800 N   0  0  0  0  0  0  0  0  0  0  0  0
   30.6250   11.5750    6.6480 S   0  0  0  0  0  6  0  0  0  0  0  0
   31.6060   10.6240    7.1340 O   0  0  0  0  0  0  0  0  0  0  0  0
   30.5730   12.0000    5.2630 O   0  0  0  0  0  0  0  0  0  0  0  0
   30.6650   13.0170    7.6810 C   0  0  0  0  0  0  0  0  0  0  0  0
   31.8920   13.6090    7.9910 C   0  0  0  0  0  0  0  0  0  0  0  0
   31.9450   14.7400    8.8100 C   0  0  0  0  0  0  0  0  0  0  0  0
   30.7280   15.2440    9.2850 C   0  0  0  0  0  0  0  0  0  0  0  0
   30.4470   16.3080   10.0970 N   0  0  0  0  0  0  0  0  0  0  0  0
   29.1410   16.4760   10.3550 N   0  0  0  0  0  0  0  0  0  0  0  0
   28.5330   15.5130    9.6440 C   0  0  0  0  0  0  0  0  0  0  0  0
   27.0770   15.3900    9.6370 C   0  0  0  0  0  0  0  0  0  0  0  0
   26.4220   14.5940    8.6780 C   0  0  0  0  0  0  0  0  0  0  0  0
   25.0220   14.4430    8.6810 C   0  0  0  0  0  0  0  0  0  0  0  0
   24.2440   15.0870    9.6420 C   0  0  0  0  0  0  0  0  0  0  0  0
   24.9030   15.8790   10.5640 C   0  0  0  0  0  0  0  0  0  0  0  0
   26.2870   16.0460   10.5730 C   0  0  0  0  0  0  0  0  0  0  0  0
   26.6770   16.9430   11.7000 C   0  0  0  0  0  0  0  0  0  0  0  0
   25.3910   17.3210   12.2740 N   0  0  0  0  0  0  0  0  0  0  0  0
   25.3090   18.0200   13.5500 C   0  0  1  0  0  0  0  0  0  0  0  0
   26.1050   17.3520   14.6710 C   0  0  0  0  0  0  0  0  0  0  0  0
   25.8990   18.1250   15.9640 C   0  0  0  0  0  0  0  0  0  0  0  0
   26.2880   19.5750   15.8040 C   0  0  0  0  0  0  0  0  0  0  0  0
   26.6060   20.2770   16.7600 O   0  0  0  0  0  0  0  0  0  0  0  0
   26.1890   20.1050   14.5420 N   0  0  0  0  0  0  0  0  0  0  0  0
   25.7190   19.4930   13.4010 C   0  0  0  0  0  0  0  0  0  0  0  0
   25.5530   20.1470   12.3720 O   0  0  0  0  0  0  0  0  0  0  0  0
   24.3390   16.6460   11.6790 C   0  0  0  0  0  0  0  0  0  0  0  0
   23.1650   16.6390   11.9980 O   0  0  0  0  0  0  0  0  0  0  0  0
   29.4920   14.6900    8.9720 C   0  0  0  0  0  0  0  0  0  0  0  0
   29.4520   13.5460    8.1510 C   0  0  0  0  0  0  0  0  0  0  0  0
   28.9430    9.8040    7.7660 C   0  0  0  0  0  0  0  0  0  0  0  0
   27.6640    9.6160    8.0100 N   0  0  0  0  0  0  0  0  0  0  0  0
   24.7464    9.1845    8.6779 H   0  0  0  0  0  0  0  0  0  0  0  0
   23.8606    9.4192    7.1330 H   0  0  0  0  0  0  0  0  0  0  0  0
   25.4708    8.6230    7.1330 H   0  0  0  0  0  0  0  0  0  0  0  0
   25.1625   11.2080    6.4917 H   0  0  0  0  0  0  0  0  0  0  0  0
   25.2659   11.3757    8.2980 H   0  0  0  0  0  0  0  0  0  0  0  0
   27.7045   12.3901    6.1605 H   0  0  0  0  0  0  0  0  0  0  0  0
   32.8222   13.1821    7.5878 H   0  0  0  0  0  0  0  0  0  0  0  0
   32.9026   15.2145    9.0706 H   0  0  0  0  0  0  0  0  0  0  0  0
   31.1760   16.9278   10.4782 H   0  0  0  0  0  0  0  0  0  0  0  0
   27.0170   14.0788    7.9095 H   0  0  0  0  0  0  0  0  0  0  0  0
   24.5389   13.8126    7.9199 H   0  0  0  0  0  0  0  0  0  0  0  0
   23.1505   14.9698    9.6658 H   0  0  0  0  0  0  0  0  0  0  0  0
   27.2970   16.4087   12.4350 H   0  0  0  0  0  0  0  0  0  0  0  0
   27.2809   17.8051   11.3806 H   0  0  0  0  0  0  0  0  0  0  0  0
   24.2519   17.9672   13.8497 H   0  0  0  0  0  0  0  0  0  0  0  0
   25.7567   16.3169   14.8024 H   0  0  0  0  0  0  0  0  0  0  0  0
   27.1739   17.3472   14.4112 H   0  0  0  0  0  0  0  0  0  0  0  0
   24.8385   18.0680   16.2505 H   0  0  0  0  0  0  0  0  0  0  0  0
   26.5365   17.6781   16.7411 H   0  0  0  0  0  0  0  0  0  0  0  0
   26.5047   21.0795   14.4349 H   0  0  0  0  0  0  0  0  0  0  0  0
   28.4930   13.0779    7.8843 H   0  0  0  0  0  0  0  0  0  0  0  0
   29.7535    9.1649    8.1462 H   0  0  0  0  0  0  0  0  0  0  0  0
  1  2  1  0
  2  3  1  0
  3  4  2  0
  4  5  1  0
  5  6  1  0
  6  7  2  0
  6  8  2  0
  6  9  1  0
  9 10  2  0
 10 11  1  0
 11 12  2  0
 12 13  1  0
 13 14  1  0
 14 15  2  0
 15 16  1  0
 16 17  2  0
 17 18  1  0
 18 19  2  0
 19 20  1  0
 20 21  2  0
 21 22  1  0
 22 23  1  0
 23 24  1  0
 24 25  1  0
 25 26  1  0
 26 27  1  0
 27 28  2  0
 27 29  1  0
 29 30  1  0
 30 31  2  0
 23 32  1  0
 32 33  2  0
 15 34  1  0
 34 35  2  0
  5 36  1  0
 36 37  2  0
 37  3  1  0
 35  9  1  0
 34 12  1  0
 21 16  1  0
 30 24  1  0
 32 20  1  0
  1 38  1  0
  1 39  1  0
  1 40  1  0
  2 41  1  0
  2 42  1  0
  4 43  1  0
 10 44  1  0
 11 45  1  0
 13 46  1  0
 17 47  1  0
 18 48  1  0
 19 49  1  0
 22 50  1  0
 22 51  1  0
 24 52  1  1
 25 53  1  0
 25 54  1  0
 26 55  1  0
 26 56  1  0
 29 57  1  0
 35 58  1  0
 36 59  1  0
M  END
>  <meeko>  (373) 
{"is_sidechain": [true], "free_energy": -12.86, "intermolecular_energy": 0.0, "internal_energy": -12.86, "cluster_size": 19, "cluster_id": 1, "rank_in_cluster": 1}

>  <_RMSD_MCS_to_ref>  (373) 
1.1994720597922326

$$$$
ligand
     RDKit          3D

 54 58  0  0  0  0  0  0  0  0999 V2000
   24.8540    9.4020    7.6050 C   0  0  0  0  0  0  0  0  0  0  0  0
   25.5230   10.7550    7.4270 C   0  0  0  0  0  0  0  0  0  0  0  0
   25.0030   11.4890    6.2420 C   0  0  0  0  0  0  0  0  0  0  0  0
   25.2720   12.7810    5.8320 C   0  0  0  0  0  0  0  0  0  0  0  0
   24.5110   12.9410    4.7090 N   0  0  0  0  0  0  0  0  0  0  0  0
   24.5960   14.2390    3.6390 S   0  0  0  0  0  6  0  0  0  0  0  0
   23.2650   14.8160    3.6500 O   0  0  0  0  0  0  0  0  0  0  0  0
   25.1670   13.6830    2.4250 O   0  0  0  0  0  0  0  0  0  0  0  0
   25.6460   15.2940    4.2950 O   0  0  0  0  0  0  0  0  0  0  0  0
   25.6830   15.4900    5.6030 C   0  0  0  0  0  0  0  0  0  0  0  0
   24.7790   15.8170    6.5910 C   0  0  0  0  0  0  0  0  0  0  0  0
   25.5090   15.8630    7.8140 C   0  0  0  0  0  0  0  0  0  0  0  0
   25.0590   16.1690    9.1640 C   0  0  0  0  0  0  0  0  0  0  0  0
   23.7770   15.7440    9.5890 C   0  0  0  0  0  0  0  0  0  0  0  0
   23.3010   16.0150   10.8800 C   0  0  0  0  0  0  0  0  0  0  0  0
   24.1240   16.7110   11.7440 C   0  0  0  0  0  0  0  0  0  0  0  0
   25.3850   17.1240   11.3240 C   0  0  0  0  0  0  0  0  0  0  0  0
   25.8780   16.8740   10.0560 C   0  0  0  0  0  0  0  0  0  0  0  0
   26.0270   17.8340   12.4360 C   0  0  0  0  0  0  0  0  0  0  0  0
   27.1030   18.3910   12.3670 O   0  0  0  0  0  0  0  0  0  0  0  0
   25.1620   17.7480   13.5170 N   0  0  0  0  0  0  0  0  0  0  0  0
   25.3130   18.5150   14.7500 C   0  0  1  0  0  0  0  0  0  0  0  0
   26.3340   17.9250   15.7220 C   0  0  0  0  0  0  0  0  0  0  0  0
   26.3640   18.7620   16.9910 C   0  0  0  0  0  0  0  0  0  0  0  0
   26.6700   20.2100   16.6850 C   0  0  0  0  0  0  0  0  0  0  0  0
   27.1470   20.9690   17.5240 O   0  0  0  0  0  0  0  0  0  0  0  0
   26.3100   20.6680   15.4430 N   0  0  0  0  0  0  0  0  0  0  0  0
   25.6380   19.9870   14.4540 C   0  0  0  0  0  0  0  0  0  0  0  0
   25.2420   20.5800   13.4500 O   0  0  0  0  0  0  0  0  0  0  0  0
   23.8840   17.1550   13.1470 C   0  0  0  0  0  0  0  0  0  0  0  0
   26.8140   15.5660    7.4710 C   0  0  0  0  0  0  0  0  0  0  0  0
   26.9240   15.3370    6.1370 O   0  0  0  0  0  0  0  0  0  0  0  0
   23.8870   11.7700    4.4240 C   0  0  0  0  0  0  0  0  0  0  0  0
   24.1420   10.8730    5.3550 N   0  0  0  0  0  0  0  0  0  0  0  0
   24.7464    9.1845    8.6779 H   0  0  0  0  0  0  0  0  0  0  0  0
   23.8606    9.4192    7.1330 H   0  0  0  0  0  0  0  0  0  0  0  0
   25.4708    8.6230    7.1330 H   0  0  0  0  0  0  0  0  0  0  0  0
   25.3409   11.3611    8.3267 H   0  0  0  0  0  0  0  0  0  0  0  0
   26.5980   10.5816    7.2711 H   0  0  0  0  0  0  0  0  0  0  0  0
   25.9450   13.5131    6.3024 H   0  0  0  0  0  0  0  0  0  0  0  0
   23.7032   16.0058    6.4607 H   0  0  0  0  0  0  0  0  0  0  0  0
   23.1378   15.1868    8.8883 H   0  0  0  0  0  0  0  0  0  0  0  0
   22.3010   15.6829   11.1956 H   0  0  0  0  0  0  0  0  0  0  0  0
   26.8796   17.2172    9.7578 H   0  0  0  0  0  0  0  0  0  0  0  0
   24.3372   18.4563   15.2543 H   0  0  0  0  0  0  0  0  0  0  0  0
   26.0500   16.8917   15.9703 H   0  0  0  0  0  0  0  0  0  0  0  0
   27.3303   17.9281   15.2557 H   0  0  0  0  0  0  0  0  0  0  0  0
   25.3832   18.6994   17.4851 H   0  0  0  0  0  0  0  0  0  0  0  0
   27.1553   18.3705   17.6472 H   0  0  0  0  0  0  0  0  0  0  0  0
   26.5747   21.6391   15.2243 H   0  0  0  0  0  0  0  0  0  0  0  0
   23.6394   16.3019   13.7969 H   0  0  0  0  0  0  0  0  0  0  0  0
   23.0355   17.8478   13.2470 H   0  0  0  0  0  0  0  0  0  0  0  0
   27.6514   15.5211    8.1829 H   0  0  0  0  0  0  0  0  0  0  0  0
   23.2567   11.5943    3.5398 H   0  0  0  0  0  0  0  0  0  0  0  0
  1  2  1  0
  2  3  1  0
  3  4  2  0
  4  5  1  0
  5  6  1  0
  6  7  2  0
  6  8  2  0
  6  9  1  0
  9 10  1  0
 10 11  2  0
 11 12  1  0
 12 13  1  0
 13 14  2  0
 14 15  1  0
 15 16  2  0
 16 17  1  0
 17 18  2  0
 17 19  1  0
 19 20  2  0
 19 21  1  0
 21 22  1  0
 22 23  1  0
 23 24  1  0
 24 25  1  0
 25 26  2  0
 25 27  1  0
 27 28  1  0
 28 29  2  0
 21 30  1  0
 12 31  2  0
 31 32  1  0
  5 33  1  0
 33 34  2  0
 34  3  1  0
 32 10  1  0
 18 13  1  0
 28 22  1  0
 30 16  1  0
  1 35  1  0
  1 36  1  0
  1 37  1  0
  2 38  1  0
  2 39  1  0
  4 40  1  0
 11 41  1  0
 14 42  1  0
 15 43  1  0
 18 44  1  0
 22 45  1  1
 23 46  1  0
 23 47  1  0
 24 48  1  0
 24 49  1  0
 27 50  1  0
 30 51  1  0
 30 52  1  0
 31 53  1  0
 33 54  1  0
M  END
>  <meeko>  (374) 
{"is_sidechain": [true], "free_energy": -12.86, "intermolecular_energy": 0.0, "internal_energy": -12.86, "cluster_size": 20, "cluster_id": 1, "rank_in_cluster": 1}

>  <_RMSD_MCS_to_ref>  (374) 
0.5142836441757274

$$$$
ligand
     RDKit          3D

 54 58  0  0  0  0  0  0  0  0999 V2000
   24.8710    9.6160    7.7820 C   0  0  0  0  0  0  0  0  0  0  0  0
   25.4240   10.9650    7.3490 C   0  0  0  0  0  0  0  0  0  0  0  0
   26.8620   11.1210    7.7030 C   0  0  0  0  0  0  0  0  0  0  0  0
   27.4500   12.0420    8.5480 C   0  0  0  0  0  0  0  0  0  0  0  0
   28.7730   11.7050    8.5430 N   0  0  0  0  0  0  0  0  0  0  0  0
   30.0110   12.5950    9.2700 S   0  0  0  0  0  6  0  0  0  0  0  0
   29.9660   12.1760   10.6590 O   0  0  0  0  0  0  0  0  0  0  0  0
   31.1870   12.3630    8.4530 O   0  0  0  0  0  0  0  0  0  0  0  0
   29.5880   14.1710    9.2060 O   0  0  0  0  0  0  0  0  0  0  0  0
   28.3160   14.6200    9.1180 C   0  0  0  0  0  0  0  0  0  0  0  0
   27.8730   15.1690    7.9380 C   0  0  0  0  0  0  0  0  0  0  0  0
   26.2610   15.7300    8.0530 S   0  0  0  0  0  0  0  0  0  0  0  0
   26.1340   15.2190    9.6810 C   0  0  0  0  0  0  0  0  0  0  0  0
   24.9220   15.4910   10.4520 C   0  0  0  0  0  0  0  0  0  0  0  0
   23.6780   14.9420   10.0990 C   0  0  0  0  0  0  0  0  0  0  0  0
   22.5290   15.1730   10.8830 C   0  0  0  0  0  0  0  0  0  0  0  0
   22.5990   15.9540   12.0380 C   0  0  0  0  0  0  0  0  0  0  0  0
   23.8270   16.4920   12.3650 C   0  0  0  0  0  0  0  0  0  0  0  0
   24.9710   16.2810   11.5940 C   0  0  0  0  0  0  0  0  0  0  0  0
   26.1280   16.9970   12.2050 C   0  0  0  0  0  0  0  0  0  0  0  0
   25.5360   17.6520   13.3590 N   0  0  0  0  0  0  0  0  0  0  0  0
   26.3410   18.2770   14.4060 C   0  0  2  0  0  0  0  0  0  0  0  0
   25.8380   17.8960   15.7950 C   0  0  0  0  0  0  0  0  0  0  0  0
   26.7170   18.5360   16.8550 C   0  0  0  0  0  0  0  0  0  0  0  0
   26.7790   20.0350   16.6820 C   0  0  0  0  0  0  0  0  0  0  0  0
   26.8750   20.8000   17.6360 O   0  0  0  0  0  0  0  0  0  0  0  0
   26.7760   20.5000   15.3910 N   0  0  0  0  0  0  0  0  0  0  0  0
   26.3850   19.8100   14.2670 C   0  0  0  0  0  0  0  0  0  0  0  0
   26.1220   20.4170   13.2280 O   0  0  0  0  0  0  0  0  0  0  0  0
   24.1990   17.3260   13.5170 C   0  0  0  0  0  0  0  0  0  0  0  0
   23.4490   17.6470   14.4180 O   0  0  0  0  0  0  0  0  0  0  0  0
   27.2940   14.5980   10.1080 C   0  0  0  0  0  0  0  0  0  0  0  0
   28.9600   10.6440    7.7180 C   0  0  0  0  0  0  0  0  0  0  0  0
   27.8180   10.2790    7.1660 N   0  0  0  0  0  0  0  0  0  0  0  0
   24.8497    9.5640    8.8806 H   0  0  0  0  0  0  0  0  0  0  0  0
   23.8507    9.4948    7.3893 H   0  0  0  0  0  0  0  0  0  0  0  0
   25.5127    8.8135    7.3893 H   0  0  0  0  0  0  0  0  0  0  0  0
   25.3150   11.0595    6.2585 H   0  0  0  0  0  0  0  0  0  0  0  0
   24.8587   11.7477    7.8761 H   0  0  0  0  0  0  0  0  0  0  0  0
   26.9634   12.8602    9.0991 H   0  0  0  0  0  0  0  0  0  0  0  0
   28.4840   15.2394    7.0260 H   0  0  0  0  0  0  0  0  0  0  0  0
   23.5989   14.3207    9.1947 H   0  0  0  0  0  0  0  0  0  0  0  0
   21.5670   14.7330   10.5813 H   0  0  0  0  0  0  0  0  0  0  0  0
   21.7112   16.1333   12.6622 H   0  0  0  0  0  0  0  0  0  0  0  0
   26.9131   16.2901   12.5114 H   0  0  0  0  0  0  0  0  0  0  0  0
   26.6178   17.6980   11.5131 H   0  0  0  0  0  0  0  0  0  0  0  0
   27.3649   17.8948   14.2815 H   0  0  0  0  0  0  0  0  0  0  0  0
   24.8031   18.2481   15.9177 H   0  0  0  0  0  0  0  0  0  0  0  0
   25.8736   16.8022   15.9063 H   0  0  0  0  0  0  0  0  0  0  0  0
   26.3053   18.3064   17.8489 H   0  0  0  0  0  0  0  0  0  0  0  0
   27.7349   18.1316   16.7536 H   0  0  0  0  0  0  0  0  0  0  0  0
   27.1005   21.4671   15.2486 H   0  0  0  0  0  0  0  0  0  0  0  0
   27.4130   14.1391   11.1006 H   0  0  0  0  0  0  0  0  0  0  0  0
   29.9286   10.1560    7.5347 H   0  0  0  0  0  0  0  0  0  0  0  0
  1  2  1  0
  2  3  1  0
  3  4  2  0
  4  5  1  0
  5  6  1  0
  6  7  2  0
  6  8  2  0
  6  9  1  0
  9 10  1  0
 10 11  2  0
 11 12  1  0
 12 13  1  0
 13 14  1  0
 14 15  2  0
 15 16  1  0
 16 17  2  0
 17 18  1  0
 18 19  2  0
 19 20  1  0
 20 21  1  0
 21 22  1  0
 22 23  1  0
 23 24  1  0
 24 25  1  0
 25 26  2  0
 25 27  1  0
 27 28  1  0
 28 29  2  0
 21 30  1  0
 30 31  2  0
 13 32  2  0
  5 33  1  0
 33 34  2  0
 34  3  1  0
 32 10  1  0
 19 14  1  0
 28 22  1  0
 30 18  1  0
  1 35  1  0
  1 36  1  0
  1 37  1  0
  2 38  1  0
  2 39  1  0
  4 40  1  0
 11 41  1  0
 15 42  1  0
 16 43  1  0
 17 44  1  0
 20 45  1  0
 20 46  1  0
 22 47  1  1
 23 48  1  0
 23 49  1  0
 24 50  1  0
 24 51  1  0
 27 52  1  0
 32 53  1  0
 33 54  1  0
M  END
>  <meeko>  (375) 
{"is_sidechain": [true], "free_energy": -12.86, "intermolecular_energy": 0.0, "internal_energy": -12.86, "cluster_size": 17, "cluster_id": 1, "rank_in_cluster": 1}

>  <_RMSD_MCS_to_ref>  (375) 
1.2930584329840287

$$$$
ligand
     RDKit          3D

 61 66  0  0  0  0  0  0  0  0999 V2000
   24.8710    9.6160    7.7820 C   0  0  0  0  0  0  0  0  0  0  0  0
   25.4240   10.9650    7.3490 C   0  0  0  0  0  0  0  0  0  0  0  0
   26.8280   11.1680    7.7970 C   0  0  0  0  0  0  0  0  0  0  0  0
   27.3040   11.9540    8.8280 C   0  0  0  0  0  0  0  0  0  0  0  0
   28.6560   11.7600    8.7960 N   0  0  0  0  0  0  0  0  0  0  0  0
   29.7790   12.5180    9.7940 S   0  0  0  0  0  6  0  0  0  0  0  0
   29.4570   12.1090   11.1510 O   0  0  0  0  0  0  0  0  0  0  0  0
   31.0580   12.1600    9.2060 O   0  0  0  0  0  0  0  0  0  0  0  0
   29.6010   14.1390    9.6330 O   0  0  0  0  0  0  0  0  0  0  0  0
   28.5020   14.6200    8.9570 C   0  0  0  0  0  0  0  0  0  0  0  0
   27.3730   14.9280    9.7160 C   0  0  0  0  0  0  0  0  0  0  0  0
   26.2210   15.4090    9.0900 C   0  0  0  0  0  0  0  0  0  0  0  0
   25.0070   15.6940    9.8590 C   0  0  0  0  0  0  0  0  0  0  0  0
   23.7360   15.3220    9.3750 C   0  0  0  0  0  0  0  0  0  0  0  0
   22.5580   15.6000   10.0970 C   0  0  0  0  0  0  0  0  0  0  0  0
   22.6170   16.2520   11.3270 C   0  0  0  0  0  0  0  0  0  0  0  0
   23.8690   16.6020   11.7950 C   0  0  0  0  0  0  0  0  0  0  0  0
   25.0460   16.3380   11.0930 C   0  0  0  0  0  0  0  0  0  0  0  0
   26.2180   16.8430   11.8730 C   0  0  0  0  0  0  0  0  0  0  0  0
   25.6040   17.3400   13.0970 N   0  0  0  0  0  0  0  0  0  0  0  0
   26.3070   18.1780   14.0610 C   0  0  1  0  0  0  0  0  0  0  0  0
   25.7250   19.5850   14.1470 C   0  0  0  0  0  0  0  0  0  0  0  0
   26.5660   20.4210   15.0990 C   0  0  0  0  0  0  0  0  0  0  0  0
   26.6720   19.7690   16.4570 C   0  0  0  0  0  0  0  0  0  0  0  0
   26.7340   20.4200   17.4960 O   0  0  0  0  0  0  0  0  0  0  0  0
   26.7220   18.3980   16.4800 N   0  0  0  0  0  0  0  0  0  0  0  0
   26.3170   17.5550   15.4680 C   0  0  0  0  0  0  0  0  0  0  0  0
   25.9900   16.3960   15.7180 O   0  0  0  0  0  0  0  0  0  0  0  0
   24.2200   17.2840   13.0450 C   0  0  0  0  0  0  0  0  0  0  0  0
   23.4220   17.7090   13.8580 O   0  0  0  0  0  0  0  0  0  0  0  0
   26.2540   15.6020    7.7000 C   0  0  0  0  0  0  0  0  0  0  0  0
   27.3840   15.3220    6.9400 C   0  0  0  0  0  0  0  0  0  0  0  0
   27.3560   15.5300    5.6080 N   0  0  0  0  0  0  0  0  0  0  0  0
   28.4820   15.2370    4.9220 C   0  0  0  0  0  0  0  0  0  0  0  0
   29.6120   14.7520    5.5420 C   0  0  0  0  0  0  0  0  0  0  0  0
   29.6610   14.5380    6.8760 N   0  0  0  0  0  0  0  0  0  0  0  0
   28.5420   14.8190    7.5780 C   0  0  0  0  0  0  0  0  0  0  0  0
   28.9670   10.9370    7.7630 C   0  0  0  0  0  0  0  0  0  0  0  0
   27.8720   10.5370    7.1470 N   0  0  0  0  0  0  0  0  0  0  0  0
   24.8497    9.5640    8.8806 H   0  0  0  0  0  0  0  0  0  0  0  0
   23.8507    9.4948    7.3893 H   0  0  0  0  0  0  0  0  0  0  0  0
   25.5127    8.8135    7.3893 H   0  0  0  0  0  0  0  0  0  0  0  0
   25.3904   11.0255    6.2512 H   0  0  0  0  0  0  0  0  0  0  0  0
   24.8055   11.7476    7.8128 H   0  0  0  0  0  0  0  0  0  0  0  0
   26.7275   12.5896    9.5162 H   0  0  0  0  0  0  0  0  0  0  0  0
   27.3900   14.7921   10.8074 H   0  0  0  0  0  0  0  0  0  0  0  0
   23.6620   14.8013    8.4089 H   0  0  0  0  0  0  0  0  0  0  0  0
   21.5830   15.2995    9.6857 H   0  0  0  0  0  0  0  0  0  0  0  0
   21.7061   16.4783   11.9007 H   0  0  0  0  0  0  0  0  0  0  0  0
   26.9294   16.0321   12.0881 H   0  0  0  0  0  0  0  0  0  0  0  0
   26.7998   17.6075   11.3372 H   0  0  0  0  0  0  0  0  0  0  0  0
   27.3396   18.2467   13.6881 H   0  0  0  0  0  0  0  0  0  0  0  0
   25.7320   20.0469   13.1487 H   0  0  0  0  0  0  0  0  0  0  0  0
   24.6909   19.5333   14.5183 H   0  0  0  0  0  0  0  0  0  0  0  0
   27.5755   20.5366   14.6776 H   0  0  0  0  0  0  0  0  0  0  0  0
   26.0801   21.4002   15.2218 H   0  0  0  0  0  0  0  0  0  0  0  0
   27.0970   17.9583   17.3326 H   0  0  0  0  0  0  0  0  0  0  0  0
   25.3559   15.9876    7.1953 H   0  0  0  0  0  0  0  0  0  0  0  0
   28.4969   15.3907    3.8329 H   0  0  0  0  0  0  0  0  0  0  0  0
   30.5016   14.5321    4.9335 H   0  0  0  0  0  0  0  0  0  0  0  0
   29.9888   10.6447    7.4794 H   0  0  0  0  0  0  0  0  0  0  0  0
  1  2  1  0
  2  3  1  0
  3  4  2  0
  4  5  1  0
  5  6  1  0
  6  7  2  0
  6  8  2  0
  6  9  1  0
  9 10  1  0
 10 11  2  0
 11 12  1  0
 12 13  1  0
 13 14  2  0
 14 15  1  0
 15 16  2  0
 16 17  1  0
 17 18  2  0
 18 19  1  0
 19 20  1  0
 20 21  1  0
 21 22  1  0
 22 23  1  0
 23 24  1  0
 24 25  2  0
 24 26  1  0
 26 27  1  0
 27 28  2  0
 20 29  1  0
 29 30  2  0
 12 31  2  0
 31 32  1  0
 32 33  2  0
 33 34  1  0
 34 35  2  0
 35 36  1  0
 36 37  2  0
  5 38  1  0
 38 39  2  0
 39  3  1  0
 37 10  1  0
 18 13  1  0
 27 21  1  0
 37 32  1  0
 29 17  1  0
  1 40  1  0
  1 41  1  0
  1 42  1  0
  2 43  1  0
  2 44  1  0
  4 45  1  0
 11 46  1  0
 14 47  1  0
 15 48  1  0
 16 49  1  0
 19 50  1  0
 19 51  1  0
 21 52  1  6
 22 53  1  0
 22 54  1  0
 23 55  1  0
 23 56  1  0
 26 57  1  0
 31 58  1  0
 34 59  1  0
 35 60  1  0
 38 61  1  0
M  END
>  <meeko>  (376) 
{"is_sidechain": [true], "free_energy": -12.86, "intermolecular_energy": 0.0, "internal_energy": -12.86, "cluster_size": 16, "cluster_id": 1, "rank_in_cluster": 1}

>  <_RMSD_MCS_to_ref>  (376) 
1.9131199067956448

$$$$
ligand
     RDKit          3D

 61 66  0  0  0  0  0  0  0  0999 V2000
   24.8710    9.6160    7.7820 C   0  0  0  0  0  0  0  0  0  0  0  0
   25.4240   10.9650    7.3490 C   0  0  0  0  0  0  0  0  0  0  0  0
   26.8920   10.9200    7.1080 C   0  0  0  0  0  0  0  0  0  0  0  0
   27.6370   11.5930    6.1610 C   0  0  0  0  0  0  0  0  0  0  0  0
   28.9180   11.1780    6.3900 N   0  0  0  0  0  0  0  0  0  0  0  0
   30.2870   11.7040    5.5560 S   0  0  0  0  0  6  0  0  0  0  0  0
   30.0190   11.3120    4.1830 O   0  0  0  0  0  0  0  0  0  0  0  0
   31.4280   11.1520    6.2640 O   0  0  0  0  0  0  0  0  0  0  0  0
   30.3600   13.3300    5.5870 O   0  0  0  0  0  0  0  0  0  0  0  0
   29.2800   14.0510    6.0240 C   0  0  0  0  0  0  0  0  0  0  0  0
   29.0030   14.0280    7.3750 C   0  0  0  0  0  0  0  0  0  0  0  0
   27.9390   14.8000    7.8300 C   0  0  0  0  0  0  0  0  0  0  0  0
   27.1930   15.5940    6.9290 C   0  0  0  0  0  0  0  0  0  0  0  0
   26.0970   16.4220    7.2680 C   0  0  0  0  0  0  0  0  0  0  0  0
   25.6030   16.5960    8.6440 C   0  0  0  0  0  0  0  0  0  0  0  0
   24.4090   15.9600    9.0750 C   0  0  0  0  0  0  0  0  0  0  0  0
   23.9260   16.1180   10.3770 C   0  0  0  0  0  0  0  0  0  0  0  0
   24.6670   16.9060   11.2350 C   0  0  0  0  0  0  0  0  0  0  0  0
   25.8480   17.5330   10.8510 C   0  0  0  0  0  0  0  0  0  0  0  0
   26.3300   17.3840    9.5600 C   0  0  0  0  0  0  0  0  0  0  0  0
   26.4040   18.3160   11.9910 C   0  0  0  0  0  0  0  0  0  0  0  0
   25.4870   17.9950   13.0780 N   0  0  0  0  0  0  0  0  0  0  0  0
   25.5220   18.7250   14.3390 C   0  0  2  0  0  0  0  0  0  0  0  0
   26.2890   20.0450   14.2660 C   0  0  0  0  0  0  0  0  0  0  0  0
   26.2110   20.7480   15.6120 C   0  0  0  0  0  0  0  0  0  0  0  0
   26.7380   19.8680   16.7220 C   0  0  0  0  0  0  0  0  0  0  0  0
   27.1640   20.3300   17.7760 O   0  0  0  0  0  0  0  0  0  0  0  0
   26.6430   18.5120   16.5320 N   0  0  0  0  0  0  0  0  0  0  0  0
   26.0700   17.8450   15.4730 C   0  0  0  0  0  0  0  0  0  0  0  0
   25.9270   16.6230   15.5150 O   0  0  0  0  0  0  0  0  0  0  0  0
   24.4040   17.2480   12.6360 C   0  0  0  0  0  0  0  0  0  0  0  0
   23.4020   16.9320   13.2480 O   0  0  0  0  0  0  0  0  0  0  0  0
   25.3980   17.1310    6.3470 N   0  0  0  0  0  0  0  0  0  0  0  0
   25.8000   17.0530    5.0670 C   0  0  0  0  0  0  0  0  0  0  0  0
   26.8680   16.2860    4.6500 C   0  0  0  0  0  0  0  0  0  0  0  0
   27.5710   15.5430    5.5750 C   0  0  0  0  0  0  0  0  0  0  0  0
   28.5970   14.7920    5.1370 N   0  0  0  0  0  0  0  0  0  0  0  0
   28.9270   10.2970    7.4210 C   0  0  0  0  0  0  0  0  0  0  0  0
   27.7070   10.1210    7.8890 N   0  0  0  0  0  0  0  0  0  0  0  0
   24.8497    9.5640    8.8806 H   0  0  0  0  0  0  0  0  0  0  0  0
   23.8507    9.4948    7.3893 H   0  0  0  0  0  0  0  0  0  0  0  0
   25.5127    8.8135    7.3893 H   0  0  0  0  0  0  0  0  0  0  0  0
   24.9218   11.2719    6.4197 H   0  0  0  0  0  0  0  0  0  0  0  0
   25.2371   11.6829    8.1612 H   0  0  0  0  0  0  0  0  0  0  0  0
   27.2811   12.3006    5.3977 H   0  0  0  0  0  0  0  0  0  0  0  0
   29.6027   13.4203    8.0686 H   0  0  0  0  0  0  0  0  0  0  0  0
   27.6763   14.7926    8.8981 H   0  0  0  0  0  0  0  0  0  0  0  0
   23.8512   15.3284    8.3679 H   0  0  0  0  0  0  0  0  0  0  0  0
   22.9939   15.6344   10.7046 H   0  0  0  0  0  0  0  0  0  0  0  0
   27.2664   17.8735    9.2543 H   0  0  0  0  0  0  0  0  0  0  0  0
   27.4291   17.9961   12.2294 H   0  0  0  0  0  0  0  0  0  0  0  0
   26.4769   19.3942   11.7855 H   0  0  0  0  0  0  0  0  0  0  0  0
   24.4766   18.9880   14.5581 H   0  0  0  0  0  0  0  0  0  0  0  0
   27.3415   19.8449   14.0167 H   0  0  0  0  0  0  0  0  0  0  0  0
   25.8454   20.6859   13.4898 H   0  0  0  0  0  0  0  0  0  0  0  0
   26.8101   21.6696   15.5702 H   0  0  0  0  0  0  0  0  0  0  0  0
   25.1563   20.9788   15.8227 H   0  0  0  0  0  0  0  0  0  0  0  0
   27.0499   17.9219   17.2717 H   0  0  0  0  0  0  0  0  0  0  0  0
   25.2480   17.6316    4.3116 H   0  0  0  0  0  0  0  0  0  0  0  0
   27.1565   16.2672    3.5887 H   0  0  0  0  0  0  0  0  0  0  0  0
   29.8264    9.7989    7.8121 H   0  0  0  0  0  0  0  0  0  0  0  0
  1  2  1  0
  2  3  1  0
  3  4  2  0
  4  5  1  0
  5  6  1  0
  6  7  2  0
  6  8  2  0
  6  9  1  0
  9 10  1  0
 10 11  2  0
 11 12  1  0
 12 13  2  0
 13 14  1  0
 14 15  1  0
 15 16  2  0
 16 17  1  0
 17 18  2  0
 18 19  1  0
 19 20  2  0
 19 21  1  0
 21 22  1  0
 22 23  1  0
 23 24  1  0
 24 25  1  0
 25 26  1  0
 26 27  2  0
 26 28  1  0
 28 29  1  0
 29 30  2  0
 22 31  1  0
 31 32  2  0
 14 33  2  0
 33 34  1  0
 34 35  2  0
 35 36  1  0
 36 37  2  0
  5 38  1  0
 38 39  2  0
 39  3  1  0
 37 10  1  0
 36 13  1  0
 20 15  1  0
 29 23  1  0
 31 18  1  0
  1 40  1  0
  1 41  1  0
  1 42  1  0
  2 43  1  0
  2 44  1  0
  4 45  1  0
 11 46  1  0
 12 47  1  0
 16 48  1  0
 17 49  1  0
 20 50  1  0
 21 51  1  0
 21 52  1  0
 23 53  1  1
 24 54  1  0
 24 55  1  0
 25 56  1  0
 25 57  1  0
 28 58  1  0
 34 59  1  0
 35 60  1  0
 38 61  1  0
M  END
>  <meeko>  (377) 
{"is_sidechain": [true], "free_energy": -12.85, "intermolecular_energy": 0.0, "internal_energy": -12.85, "cluster_size": 20, "cluster_id": 1, "rank_in_cluster": 1}

>  <_RMSD_MCS_to_ref>  (377) 
1.7420011783185336

$$$$
ligand
     RDKit          3D

 60 65  0  0  0  0  0  0  0  0999 V2000
   24.8540    9.4020    7.6050 C   0  0  0  0  0  0  0  0  0  0  0  0
   25.5230   10.7550    7.4270 C   0  0  0  0  0  0  0  0  0  0  0  0
   27.0080   10.6590    7.4900 C   0  0  0  0  0  0  0  0  0  0  0  0
   27.9520   11.6540    7.3280 C   0  0  0  0  0  0  0  0  0  0  0  0
   29.1490   11.0120    7.4760 N   0  0  0  0  0  0  0  0  0  0  0  0
   30.6540   11.7540    7.5980 S   0  0  0  0  0  6  0  0  0  0  0  0
   31.4490   10.9180    8.4770 O   0  0  0  0  0  0  0  0  0  0  0  0
   31.0530   12.0350    6.2300 O   0  0  0  0  0  0  0  0  0  0  0  0
   30.3100   13.2760    8.4050 C   0  0  0  0  0  0  0  0  0  0  0  0
   31.2720   14.2510    8.5090 C   0  0  0  0  0  0  0  0  0  0  0  0
   30.9840   15.4580    9.0520 N   0  0  0  0  0  0  0  0  0  0  0  0
   29.7160   15.6520    9.4790 C   0  0  0  0  0  0  0  0  0  0  0  0
   29.3350   16.8740   10.0150 C   0  0  0  0  0  0  0  0  0  0  0  0
   28.0190   17.1110   10.4300 C   0  0  0  0  0  0  0  0  0  0  0  0
   27.0490   16.1080   10.3270 C   0  0  0  0  0  0  0  0  0  0  0  0
   25.6530   16.3450   10.7240 C   0  0  0  0  0  0  0  0  0  0  0  0
   24.5840   16.0130    9.8660 C   0  0  0  0  0  0  0  0  0  0  0  0
   23.2410   16.2560   10.2220 C   0  0  0  0  0  0  0  0  0  0  0  0
   22.9270   16.8380   11.4470 C   0  0  0  0  0  0  0  0  0  0  0  0
   23.9770   17.1520   12.2850 C   0  0  0  0  0  0  0  0  0  0  0  0
   25.3130   16.9140   11.9510 C   0  0  0  0  0  0  0  0  0  0  0  0
   26.1900   17.3650   13.0760 C   0  0  0  0  0  0  0  0  0  0  0  0
   25.2390   17.8270   14.0760 N   0  0  0  0  0  0  0  0  0  0  0  0
   25.6300   18.6670   15.2060 C   0  0  1  0  0  0  0  0  0  0  0  0
   26.7290   18.0180   16.0410 C   0  0  0  0  0  0  0  0  0  0  0  0
   27.0770   18.9180   17.2160 C   0  0  0  0  0  0  0  0  0  0  0  0
   27.4990   20.2870   16.7390 C   0  0  0  0  0  0  0  0  0  0  0  0
   28.3710   20.9380   17.3080 O   0  0  0  0  0  0  0  0  0  0  0  0
   26.8380   20.7810   15.6430 N   0  0  0  0  0  0  0  0  0  0  0  0
   26.0890   20.0630   14.7410 C   0  0  0  0  0  0  0  0  0  0  0  0
   25.8150   20.5450   13.6420 O   0  0  0  0  0  0  0  0  0  0  0  0
   23.9340   17.7800   13.6120 C   0  0  0  0  0  0  0  0  0  0  0  0
   22.9270   18.1780   14.1650 O   0  0  0  0  0  0  0  0  0  0  0  0
   27.4500   14.8640    9.8190 C   0  0  0  0  0  0  0  0  0  0  0  0
   28.7430   14.6280    9.3760 C   0  0  0  0  0  0  0  0  0  0  0  0
   29.0340   13.4330    8.8350 N   0  0  0  0  0  0  0  0  0  0  0  0
   28.9160    9.7030    7.7560 C   0  0  0  0  0  0  0  0  0  0  0  0
   27.6220    9.4530    7.7660 N   0  0  0  0  0  0  0  0  0  0  0  0
   24.7464    9.1845    8.6779 H   0  0  0  0  0  0  0  0  0  0  0  0
   23.8606    9.4192    7.1330 H   0  0  0  0  0  0  0  0  0  0  0  0
   25.4708    8.6230    7.1330 H   0  0  0  0  0  0  0  0  0  0  0  0
   25.2355   11.1667    6.4483 H   0  0  0  0  0  0  0  0  0  0  0  0
   25.1909   11.4075    8.2480 H   0  0  0  0  0  0  0  0  0  0  0  0
   27.7793   12.7214    7.1257 H   0  0  0  0  0  0  0  0  0  0  0  0
   32.2906   14.0487    8.1462 H   0  0  0  0  0  0  0  0  0  0  0  0
   30.0833   17.6739   10.1160 H   0  0  0  0  0  0  0  0  0  0  0  0
   27.7454   18.0942   10.8405 H   0  0  0  0  0  0  0  0  0  0  0  0
   24.8038   15.5516    8.8919 H   0  0  0  0  0  0  0  0  0  0  0  0
   22.4345   15.9832    9.5255 H   0  0  0  0  0  0  0  0  0  0  0  0
   21.8846   17.0392   11.7350 H   0  0  0  0  0  0  0  0  0  0  0  0
   26.7950   16.5317   13.4627 H   0  0  0  0  0  0  0  0  0  0  0  0
   26.9108   18.1400   12.7764 H   0  0  0  0  0  0  0  0  0  0  0  0
   24.7347   18.7799   15.8350 H   0  0  0  0  0  0  0  0  0  0  0  0
   26.3774   17.0457   16.4164 H   0  0  0  0  0  0  0  0  0  0  0  0
   27.6227   17.8709   15.4168 H   0  0  0  0  0  0  0  0  0  0  0  0
   26.1953   19.0189   17.8660 H   0  0  0  0  0  0  0  0  0  0  0  0
   27.9127   18.4656   17.7700 H   0  0  0  0  0  0  0  0  0  0  0  0
   26.9104   21.7953   15.4789 H   0  0  0  0  0  0  0  0  0  0  0  0
   26.7142   14.0477    9.7702 H   0  0  0  0  0  0  0  0  0  0  0  0
   29.6994    8.9550    7.9479 H   0  0  0  0  0  0  0  0  0  0  0  0
  1  2  1  0
  2  3  1  0
  3  4  2  0
  4  5  1  0
  5  6  1  0
  6  7  2  0
  6  8  2  0
  6  9  1  0
  9 10  2  0
 10 11  1  0
 11 12  2  0
 12 13  1  0
 13 14  2  0
 14 15  1  0
 15 16  1  0
 16 17  2  0
 17 18  1  0
 18 19  2  0
 19 20  1  0
 20 21  2  0
 21 22  1  0
 22 23  1  0
 23 24  1  0
 24 25  1  0
 25 26  1  0
 26 27  1  0
 27 28  2  0
 27 29  1  0
 29 30  1  0
 30 31  2  0
 23 32  1  0
 32 33  2  0
 15 34  2  0
 34 35  1  0
 35 36  2  0
  5 37  1  0
 37 38  2  0
 38  3  1  0
 36  9  1  0
 35 12  1  0
 21 16  1  0
 30 24  1  0
 32 20  1  0
  1 39  1  0
  1 40  1  0
  1 41  1  0
  2 42  1  0
  2 43  1  0
  4 44  1  0
 10 45  1  0
 13 46  1  0
 14 47  1  0
 17 48  1  0
 18 49  1  0
 19 50  1  0
 22 51  1  0
 22 52  1  0
 24 53  1  1
 25 54  1  0
 25 55  1  0
 26 56  1  0
 26 57  1  0
 29 58  1  0
 34 59  1  0
 37 60  1  0
M  END
>  <meeko>  (378) 
{"is_sidechain": [true], "free_energy": -12.83, "intermolecular_energy": 0.0, "internal_energy": -12.83, "cluster_size": 9, "cluster_id": 1, "rank_in_cluster": 1}

>  <_RMSD_MCS_to_ref>  (378) 
0.9507543204097347

$$$$
ligand
     RDKit          3D

 53 57  0  0  0  0  0  0  0  0999 V2000
   24.8540    9.4020    7.6050 C   0  0  0  0  0  0  0  0  0  0  0  0
   25.5230   10.7550    7.4270 C   0  0  0  0  0  0  0  0  0  0  0  0
   25.0640   11.4480    6.1930 C   0  0  0  0  0  0  0  0  0  0  0  0
   25.4160   12.6960    5.7160 C   0  0  0  0  0  0  0  0  0  0  0  0
   24.6810   12.8330    4.5720 N   0  0  0  0  0  0  0  0  0  0  0  0
   24.6080   14.2200    3.6100 S   0  0  0  0  0  6  0  0  0  0  0  0
   23.2990   14.7990    3.8570 O   0  0  0  0  0  0  0  0  0  0  0  0
   24.9580   13.7310    2.2870 O   0  0  0  0  0  0  0  0  0  0  0  0
   25.7590   15.2660    4.0710 O   0  0  0  0  0  0  0  0  0  0  0  0
   25.9820   15.4830    5.3660 C   0  0  0  0  0  0  0  0  0  0  0  0
   27.2180   15.2600    5.8110 N   0  0  0  0  0  0  0  0  0  0  0  0
   27.0730   15.5060    7.1250 N   0  0  0  0  0  0  0  0  0  0  0  0
   25.7760   15.8230    7.4400 C   0  0  0  0  0  0  0  0  0  0  0  0
   25.2530   16.0600    8.7860 C   0  0  0  0  0  0  0  0  0  0  0  0
   24.0990   15.4040    9.2750 C   0  0  0  0  0  0  0  0  0  0  0  0
   23.6110   15.6620   10.5620 C   0  0  0  0  0  0  0  0  0  0  0  0
   24.2960   16.5790   11.3340 C   0  0  0  0  0  0  0  0  0  0  0  0
   25.4380   17.2310   10.8850 C   0  0  0  0  0  0  0  0  0  0  0  0
   25.9270   16.9810    9.6150 C   0  0  0  0  0  0  0  0  0  0  0  0
   25.9690   18.1300   11.9500 C   0  0  0  0  0  0  0  0  0  0  0  0
   24.9580   18.0140   12.9930 N   0  0  0  0  0  0  0  0  0  0  0  0
   25.1830   18.5630   14.3270 C   0  0  1  0  0  0  0  0  0  0  0  0
   26.3150   17.8770   15.0900 C   0  0  0  0  0  0  0  0  0  0  0  0
   26.4210   18.4790   16.4820 C   0  0  0  0  0  0  0  0  0  0  0  0
   26.6300   19.9740   16.4180 C   0  0  0  0  0  0  0  0  0  0  0  0
   27.1590   20.6000   17.3320 O   0  0  0  0  0  0  0  0  0  0  0  0
   26.1240   20.6210   15.3180 N   0  0  0  0  0  0  0  0  0  0  0  0
   25.4110   20.0810   14.2720 C   0  0  0  0  0  0  0  0  0  0  0  0
   24.9160   20.8130   13.4160 O   0  0  0  0  0  0  0  0  0  0  0  0
   24.0180   17.0370   12.6990 C   0  0  0  0  0  0  0  0  0  0  0  0
   23.1290   16.6010   13.4030 O   0  0  0  0  0  0  0  0  0  0  0  0
   25.0800   15.8280    6.3180 N   0  0  0  0  0  0  0  0  0  0  0  0
   23.9390   11.7130    4.3780 C   0  0  0  0  0  0  0  0  0  0  0  0
   24.1470   10.8460    5.3510 N   0  0  0  0  0  0  0  0  0  0  0  0
   24.7464    9.1845    8.6779 H   0  0  0  0  0  0  0  0  0  0  0  0
   23.8606    9.4192    7.1330 H   0  0  0  0  0  0  0  0  0  0  0  0
   25.4708    8.6230    7.1330 H   0  0  0  0  0  0  0  0  0  0  0  0
   25.2858   11.3852    8.2968 H   0  0  0  0  0  0  0  0  0  0  0  0
   26.6067   10.5882    7.3388 H   0  0  0  0  0  0  0  0  0  0  0  0
   26.1243   13.4137    6.1556 H   0  0  0  0  0  0  0  0  0  0  0  0
   27.8407   15.4619    7.8102 H   0  0  0  0  0  0  0  0  0  0  0  0
   23.5763   14.6792    8.6336 H   0  0  0  0  0  0  0  0  0  0  0  0
   22.7142   15.1524   10.9441 H   0  0  0  0  0  0  0  0  0  0  0  0
   26.8310   17.4946    9.2559 H   0  0  0  0  0  0  0  0  0  0  0  0
   26.9507   17.7860   12.3078 H   0  0  0  0  0  0  0  0  0  0  0  0
   26.1325   19.1634   11.6105 H   0  0  0  0  0  0  0  0  0  0  0  0
   24.2612   18.3584   14.8913 H   0  0  0  0  0  0  0  0  0  0  0  0
   26.1040   16.8004   15.1705 H   0  0  0  0  0  0  0  0  0  0  0  0
   27.2633   18.0239   14.5522 H   0  0  0  0  0  0  0  0  0  0  0  0
   25.4931   18.2701   17.0346 H   0  0  0  0  0  0  0  0  0  0  0  0
   27.2861   18.0285   16.9906 H   0  0  0  0  0  0  0  0  0  0  0  0
   26.2995   21.6348   15.2696 H   0  0  0  0  0  0  0  0  0  0  0  0
   23.2593   11.5507    3.5285 H   0  0  0  0  0  0  0  0  0  0  0  0
  1  2  1  0
  2  3  1  0
  3  4  2  0
  4  5  1  0
  5  6  1  0
  6  7  2  0
  6  8  2  0
  6  9  1  0
  9 10  1  0
 10 11  2  0
 11 12  1  0
 12 13  1  0
 13 14  1  0
 14 15  2  0
 15 16  1  0
 16 17  2  0
 17 18  1  0
 18 19  2  0
 18 20  1  0
 20 21  1  0
 21 22  1  0
 22 23  1  0
 23 24  1  0
 24 25  1  0
 25 26  2  0
 25 27  1  0
 27 28  1  0
 28 29  2  0
 21 30  1  0
 30 31  2  0
 13 32  2  0
  5 33  1  0
 33 34  2  0
 34  3  1  0
 32 10  1  0
 19 14  1  0
 28 22  1  0
 30 17  1  0
  1 35  1  0
  1 36  1  0
  1 37  1  0
  2 38  1  0
  2 39  1  0
  4 40  1  0
 12 41  1  0
 15 42  1  0
 16 43  1  0
 19 44  1  0
 20 45  1  0
 20 46  1  0
 22 47  1  1
 23 48  1  0
 23 49  1  0
 24 50  1  0
 24 51  1  0
 27 52  1  0
 33 53  1  0
M  END
>  <meeko>  (379) 
{"is_sidechain": [true], "free_energy": -12.83, "intermolecular_energy": 0.0, "internal_energy": -12.83, "cluster_size": 19, "cluster_id": 1, "rank_in_cluster": 1}

>  <_RMSD_MCS_to_ref>  (379) 
0.46562001675185716

$$$$
ligand
     RDKit          3D

 54 58  0  0  0  0  0  0  0  0999 V2000
   24.8540    9.4020    7.6050 C   0  0  0  0  0  0  0  0  0  0  0  0
   25.5230   10.7550    7.4270 C   0  0  0  0  0  0  0  0  0  0  0  0
   24.9830   11.5010    6.2580 C   0  0  0  0  0  0  0  0  0  0  0  0
   25.2720   12.7840    5.8390 C   0  0  0  0  0  0  0  0  0  0  0  0
   24.4990   12.9530    4.7250 N   0  0  0  0  0  0  0  0  0  0  0  0
   24.4510   14.3240    3.7580 S   0  0  0  0  0  6  0  0  0  0  0  0
   24.8860   13.9150    2.4360 O   0  0  0  0  0  0  0  0  0  0  0  0
   23.1320   14.8860    3.9920 O   0  0  0  0  0  0  0  0  0  0  0  0
   25.6340   15.4700    4.3860 C   0  0  0  0  0  0  0  0  0  0  0  0
   26.6010   15.9620    3.4910 C   0  0  0  0  0  0  0  0  0  0  0  0
   27.5650   16.8660    3.9220 C   0  0  0  0  0  0  0  0  0  0  0  0
   27.5890   17.2980    5.2490 C   0  0  0  0  0  0  0  0  0  0  0  0
   26.6200   16.7960    6.1350 C   0  0  0  0  0  0  0  0  0  0  0  0
   26.4120   17.1510    7.8070 S   0  0  0  0  0  0  0  0  0  0  0  0
   25.0630   16.1000    7.8650 C   0  0  0  0  0  0  0  0  0  0  0  0
   24.3030   15.9030    9.0710 C   0  0  0  0  0  0  0  0  0  0  0  0
   23.2230   15.0590    9.2760 C   0  0  0  0  0  0  0  0  0  0  0  0
   22.8090   15.2180   10.6200 C   0  0  0  0  0  0  0  0  0  0  0  0
   23.6520   16.1520   11.1830 C   0  0  0  0  0  0  0  0  0  0  0  0
   23.7020   16.7100   12.5180 C   0  0  0  0  0  0  0  0  0  0  0  0
   22.9210   16.4070   13.4150 O   0  0  0  0  0  0  0  0  0  0  0  0
   24.7070   17.6320   12.7050 N   0  0  0  0  0  0  0  0  0  0  0  0
   24.8190   18.4200   13.9190 C   0  0  1  0  0  0  0  0  0  0  0  0
   25.6500   17.7170   14.9870 C   0  0  0  0  0  0  0  0  0  0  0  0
   25.7560   18.6060   16.2160 C   0  0  0  0  0  0  0  0  0  0  0  0
   26.3220   19.9620   15.8650 C   0  0  0  0  0  0  0  0  0  0  0  0
   27.0340   20.5980   16.6360 O   0  0  0  0  0  0  0  0  0  0  0  0
   25.9730   20.4750   14.6420 N   0  0  0  0  0  0  0  0  0  0  0  0
   25.4770   19.7610   13.5780 C   0  0  0  0  0  0  0  0  0  0  0  0
   25.5530   20.1980   12.4300 O   0  0  0  0  0  0  0  0  0  0  0  0
   24.5580   16.5710   10.2450 O   0  0  0  0  0  0  0  0  0  0  0  0
   24.7680   15.4960    6.7330 N   0  0  0  0  0  0  0  0  0  0  0  0
   25.6390   15.8860    5.7300 C   0  0  0  0  0  0  0  0  0  0  0  0
   23.7820   11.8210    4.5020 C   0  0  0  0  0  0  0  0  0  0  0  0
   24.0560   10.9140    5.4190 N   0  0  0  0  0  0  0  0  0  0  0  0
   24.7464    9.1845    8.6779 H   0  0  0  0  0  0  0  0  0  0  0  0
   23.8606    9.4192    7.1330 H   0  0  0  0  0  0  0  0  0  0  0  0
   25.4708    8.6230    7.1330 H   0  0  0  0  0  0  0  0  0  0  0  0
   25.3589   11.3533    8.3353 H   0  0  0  0  0  0  0  0  0  0  0  0
   26.5946   10.5806    7.2499 H   0  0  0  0  0  0  0  0  0  0  0  0
   25.9654   13.5049    6.2968 H   0  0  0  0  0  0  0  0  0  0  0  0
   26.5944   15.6291    2.4426 H   0  0  0  0  0  0  0  0  0  0  0  0
   28.3149   17.2439    3.2115 H   0  0  0  0  0  0  0  0  0  0  0  0
   28.3488   18.0149    5.5936 H   0  0  0  0  0  0  0  0  0  0  0  0
   22.7705   14.3884    8.5307 H   0  0  0  0  0  0  0  0  0  0  0  0
   21.9773   14.6980   11.1179 H   0  0  0  0  0  0  0  0  0  0  0  0
   25.4032   17.7673   11.9581 H   0  0  0  0  0  0  0  0  0  0  0  0
   23.8064   18.5651   14.3236 H   0  0  0  0  0  0  0  0  0  0  0  0
   25.1662   16.7681   15.2619 H   0  0  0  0  0  0  0  0  0  0  0  0
   26.6571   17.5155   14.5932 H   0  0  0  0  0  0  0  0  0  0  0  0
   24.7541   18.7374   16.6507 H   0  0  0  0  0  0  0  0  0  0  0  0
   26.4325   18.1232   16.9366 H   0  0  0  0  0  0  0  0  0  0  0  0
   26.0939   21.4892   14.5088 H   0  0  0  0  0  0  0  0  0  0  0  0
   23.0726   11.6807    3.6731 H   0  0  0  0  0  0  0  0  0  0  0  0
  1  2  1  0
  2  3  1  0
  3  4  2  0
  4  5  1  0
  5  6  1  0
  6  7  2  0
  6  8  2  0
  6  9  1  0
  9 10  2  0
 10 11  1  0
 11 12  2  0
 12 13  1  0
 13 14  1  0
 14 15  1  0
 15 16  1  0
 16 17  2  0
 17 18  1  0
 18 19  2  0
 19 20  1  0
 20 21  2  0
 20 22  1  0
 22 23  1  0
 23 24  1  0
 24 25  1  0
 25 26  1  0
 26 27  2  0
 26 28  1  0
 28 29  1  0
 29 30  2  0
 19 31  1  0
 15 32  2  0
 32 33  1  0
  5 34  1  0
 34 35  2  0
 35  3  1  0
 33  9  1  0
 33 13  2  0
 31 16  1  0
 29 23  1  0
  1 36  1  0
  1 37  1  0
  1 38  1  0
  2 39  1  0
  2 40  1  0
  4 41  1  0
 10 42  1  0
 11 43  1  0
 12 44  1  0
 17 45  1  0
 18 46  1  0
 22 47  1  0
 23 48  1  1
 24 49  1  0
 24 50  1  0
 25 51  1  0
 25 52  1  0
 28 53  1  0
 34 54  1  0
M  END
>  <meeko>  (380) 
{"is_sidechain": [true], "free_energy": -12.81, "intermolecular_energy": 0.0, "internal_energy": -12.81, "cluster_size": 19, "cluster_id": 1, "rank_in_cluster": 1}

>  <_RMSD_MCS_to_ref>  (380) 
0.9456983897863234

$$$$
ligand
     RDKit          3D

 60 65  0  0  0  0  0  0  0  0999 V2000
   24.8710    9.6160    7.7820 C   0  0  0  0  0  0  0  0  0  0  0  0
   25.4240   10.9650    7.3490 C   0  0  0  0  0  0  0  0  0  0  0  0
   26.8840   10.9050    7.0620 C   0  0  0  0  0  0  0  0  0  0  0  0
   27.6780   11.8450    6.4350 C   0  0  0  0  0  0  0  0  0  0  0  0
   28.9330   11.3070    6.4770 N   0  0  0  0  0  0  0  0  0  0  0  0
   30.3790   12.1220    6.1590 S   0  0  0  0  0  6  0  0  0  0  0  0
   31.4080   11.1160    6.3460 O   0  0  0  0  0  0  0  0  0  0  0  0
   30.1830   12.7660    4.8710 O   0  0  0  0  0  0  0  0  0  0  0  0
   30.5860   13.2830    7.2920 O   0  0  0  0  0  0  0  0  0  0  0  0
   29.6850   13.3960    8.3290 C   0  0  0  0  0  0  0  0  0  0  0  0
   29.9730   12.6960    9.5060 C   0  0  0  0  0  0  0  0  0  0  0  0
   29.0790   12.7040   10.5740 C   0  0  0  0  0  0  0  0  0  0  0  0
   27.8790   13.4190   10.4960 C   0  0  0  0  0  0  0  0  0  0  0  0
   27.5930   14.1680    9.3350 C   0  0  0  0  0  0  0  0  0  0  0  0
   26.5020   14.9630    8.8660 C   0  0  0  0  0  0  0  0  0  0  0  0
   25.2340   15.2270    9.5340 C   0  0  0  0  0  0  0  0  0  0  0  0
   24.0080   14.8660    8.9460 C   0  0  0  0  0  0  0  0  0  0  0  0
   22.7810   15.1790    9.5640 C   0  0  0  0  0  0  0  0  0  0  0  0
   22.7550   15.8650   10.7780 C   0  0  0  0  0  0  0  0  0  0  0  0
   23.9690   16.1970   11.3470 C   0  0  0  0  0  0  0  0  0  0  0  0
   25.1930   15.8810   10.7580 C   0  0  0  0  0  0  0  0  0  0  0  0
   26.3120   16.3810   11.6120 C   0  0  0  0  0  0  0  0  0  0  0  0
   25.6090   16.9830   12.7400 N   0  0  0  0  0  0  0  0  0  0  0  0
   26.2610   17.8260   13.7320 C   0  0  1  0  0  0  0  0  0  0  0  0
   25.6150   19.2040   13.8370 C   0  0  0  0  0  0  0  0  0  0  0  0
   26.4010   20.0570   14.8210 C   0  0  0  0  0  0  0  0  0  0  0  0
   26.5090   19.3780   16.1660 C   0  0  0  0  0  0  0  0  0  0  0  0
   26.4830   20.0030   17.2230 O   0  0  0  0  0  0  0  0  0  0  0  0
   26.6570   18.0150   16.1560 N   0  0  0  0  0  0  0  0  0  0  0  0
   26.2840   17.1780   15.1270 C   0  0  0  0  0  0  0  0  0  0  0  0
   25.9900   16.0080   15.3610 O   0  0  0  0  0  0  0  0  0  0  0  0
   24.2330   16.9390   12.5840 C   0  0  0  0  0  0  0  0  0  0  0  0
   23.3810   17.4180   13.3080 O   0  0  0  0  0  0  0  0  0  0  0  0
   26.7380   15.4210    7.6270 N   0  0  0  0  0  0  0  0  0  0  0  0
   27.9680   14.9760    7.3340 N   0  0  0  0  0  0  0  0  0  0  0  0
   28.5090   14.1550    8.2880 C   0  0  0  0  0  0  0  0  0  0  0  0
   28.8810   10.1020    7.1030 C   0  0  0  0  0  0  0  0  0  0  0  0
   27.6440    9.8220    7.4600 N   0  0  0  0  0  0  0  0  0  0  0  0
   24.8497    9.5640    8.8806 H   0  0  0  0  0  0  0  0  0  0  0  0
   23.8507    9.4948    7.3893 H   0  0  0  0  0  0  0  0  0  0  0  0
   25.5127    8.8135    7.3893 H   0  0  0  0  0  0  0  0  0  0  0  0
   24.8967   11.2894    6.4398 H   0  0  0  0  0  0  0  0  0  0  0  0
   25.2696   11.6755    8.1744 H   0  0  0  0  0  0  0  0  0  0  0  0
   27.3701   12.8076    6.0007 H   0  0  0  0  0  0  0  0  0  0  0  0
   30.9149   12.1338    9.5885 H   0  0  0  0  0  0  0  0  0  0  0  0
   29.3190   12.1421   11.4887 H   0  0  0  0  0  0  0  0  0  0  0  0
   27.1648   13.3974   11.3324 H   0  0  0  0  0  0  0  0  0  0  0  0
   24.0072   14.3293    7.9858 H   0  0  0  0  0  0  0  0  0  0  0  0
   21.8367   14.8801    9.0854 H   0  0  0  0  0  0  0  0  0  0  0  0
   21.8046   16.1313   11.2635 H   0  0  0  0  0  0  0  0  0  0  0  0
   26.9586   15.5548   11.9426 H   0  0  0  0  0  0  0  0  0  0  0  0
   26.9808   17.0812   11.0900 H   0  0  0  0  0  0  0  0  0  0  0  0
   27.2954   17.9431   13.3765 H   0  0  0  0  0  0  0  0  0  0  0  0
   25.6180   19.6870   12.8487 H   0  0  0  0  0  0  0  0  0  0  0  0
   24.5783   19.0979   14.1892 H   0  0  0  0  0  0  0  0  0  0  0  0
   27.4120   20.2260   14.4219 H   0  0  0  0  0  0  0  0  0  0  0  0
   25.8725   21.0125   14.9541 H   0  0  0  0  0  0  0  0  0  0  0  0
   27.0826   17.5804   16.9872 H   0  0  0  0  0  0  0  0  0  0  0  0
   28.4633   15.2293    6.4671 H   0  0  0  0  0  0  0  0  0  0  0  0
   29.7493    9.4519    7.2859 H   0  0  0  0  0  0  0  0  0  0  0  0
  1  2  1  0
  2  3  1  0
  3  4  2  0
  4  5  1  0
  5  6  1  0
  6  7  2  0
  6  8  2  0
  6  9  1  0
  9 10  1  0
 10 11  2  0
 11 12  1  0
 12 13  2  0
 13 14  1  0
 14 15  1  0
 15 16  1  0
 16 17  2  0
 17 18  1  0
 18 19  2  0
 19 20  1  0
 20 21  2  0
 21 22  1  0
 22 23  1  0
 23 24  1  0
 24 25  1  0
 25 26  1  0
 26 27  1  0
 27 28  2  0
 27 29  1  0
 29 30  1  0
 30 31  2  0
 23 32  1  0
 32 33  2  0
 15 34  2  0
 34 35  1  0
 35 36  1  0
  5 37  1  0
 37 38  2  0
 38  3  1  0
 36 10  1  0
 36 14  2  0
 21 16  1  0
 30 24  1  0
 32 20  1  0
  1 39  1  0
  1 40  1  0
  1 41  1  0
  2 42  1  0
  2 43  1  0
  4 44  1  0
 11 45  1  0
 12 46  1  0
 13 47  1  0
 17 48  1  0
 18 49  1  0
 19 50  1  0
 22 51  1  0
 22 52  1  0
 24 53  1  6
 25 54  1  0
 25 55  1  0
 26 56  1  0
 26 57  1  0
 29 58  1  0
 35 59  1  0
 37 60  1  0
M  END
>  <meeko>  (381) 
{"is_sidechain": [true], "free_energy": -12.81, "intermolecular_energy": 0.0, "internal_energy": -12.81, "cluster_size": 9, "cluster_id": 1, "rank_in_cluster": 1}

>  <_RMSD_MCS_to_ref>  (381) 
1.9564344694707596

$$$$
ligand
     RDKit          3D

 61 66  0  0  0  0  0  0  0  0999 V2000
   24.8540    9.4020    7.6050 C   0  0  0  0  0  0  0  0  0  0  0  0
   25.5230   10.7550    7.4270 C   0  0  0  0  0  0  0  0  0  0  0  0
   25.0510   11.4590    6.2040 C   0  0  0  0  0  0  0  0  0  0  0  0
   25.5340   12.6160    5.6250 C   0  0  0  0  0  0  0  0  0  0  0  0
   24.7150   12.8220    4.5510 N   0  0  0  0  0  0  0  0  0  0  0  0
   24.9690   13.9470    3.3220 S   0  0  0  0  0  6  0  0  0  0  0  0
   26.3770   13.8050    2.9860 O   0  0  0  0  0  0  0  0  0  0  0  0
   23.9170   13.6780    2.3620 O   0  0  0  0  0  0  0  0  0  0  0  0
   24.7100   15.4090    4.0030 O   0  0  0  0  0  0  0  0  0  0  0  0
   25.4730   15.8530    5.0540 C   0  0  0  0  0  0  0  0  0  0  0  0
   26.7080   16.4050    4.7110 C   0  0  0  0  0  0  0  0  0  0  0  0
   27.5700   16.9150    5.6870 C   0  0  0  0  0  0  0  0  0  0  0  0
   27.1390   16.8680    7.0170 C   0  0  0  0  0  0  0  0  0  0  0  0
   27.7620   17.3050    8.1640 N   0  0  0  0  0  0  0  0  0  0  0  0
   26.9590   17.0850    9.2520 C   0  0  0  0  0  0  0  0  0  0  0  0
   25.7990   16.4780    8.8140 C   0  0  0  0  0  0  0  0  0  0  0  0
   24.7030   16.1580    9.7100 C   0  0  0  0  0  0  0  0  0  0  0  0
   23.6720   15.2940    9.2960 C   0  0  0  0  0  0  0  0  0  0  0  0
   22.6100   14.9600   10.1570 C   0  0  0  0  0  0  0  0  0  0  0  0
   22.5570   15.4760   11.4510 C   0  0  0  0  0  0  0  0  0  0  0  0
   23.5830   16.3160   11.8410 C   0  0  0  0  0  0  0  0  0  0  0  0
   24.6400   16.6670   11.0000 C   0  0  0  0  0  0  0  0  0  0  0  0
   25.5650   17.5900   11.7210 C   0  0  0  0  0  0  0  0  0  0  0  0
   24.9770   17.6790   13.0510 N   0  0  0  0  0  0  0  0  0  0  0  0
   25.2970   18.7600   13.9770 C   0  0  1  0  0  0  0  0  0  0  0  0
   25.2510   18.3080   15.4340 C   0  0  0  0  0  0  0  0  0  0  0  0
   25.5580   19.4860   16.3450 C   0  0  0  0  0  0  0  0  0  0  0  0
   26.8930   20.1020   15.9980 C   0  0  0  0  0  0  0  0  0  0  0  0
   27.6550   20.5450   16.8520 O   0  0  0  0  0  0  0  0  0  0  0  0
   27.2050   20.1670   14.6640 N   0  0  0  0  0  0  0  0  0  0  0  0
   26.6810   19.3660   13.6760 C   0  0  0  0  0  0  0  0  0  0  0  0
   27.3090   19.1850   12.6340 O   0  0  0  0  0  0  0  0  0  0  0  0
   23.7720   16.9950   13.1280 C   0  0  0  0  0  0  0  0  0  0  0  0
   22.9930   16.9560   14.0610 O   0  0  0  0  0  0  0  0  0  0  0  0
   25.9140   16.3170    7.3970 C   0  0  0  0  0  0  0  0  0  0  0  0
   25.0860   15.7630    6.3960 C   0  0  0  0  0  0  0  0  0  0  0  0
   23.8410   11.7880    4.4560 C   0  0  0  0  0  0  0  0  0  0  0  0
   24.0030   10.9530    5.4610 N   0  0  0  0  0  0  0  0  0  0  0  0
   24.7464    9.1845    8.6779 H   0  0  0  0  0  0  0  0  0  0  0  0
   23.8606    9.4192    7.1330 H   0  0  0  0  0  0  0  0  0  0  0  0
   25.4708    8.6230    7.1330 H   0  0  0  0  0  0  0  0  0  0  0  0
   25.2982   11.3795    8.3042 H   0  0  0  0  0  0  0  0  0  0  0  0
   26.6049   10.5856    7.3228 H   0  0  0  0  0  0  0  0  0  0  0  0
   26.3844   13.2315    5.9536 H   0  0  0  0  0  0  0  0  0  0  0  0
   27.0089   16.4396    3.6535 H   0  0  0  0  0  0  0  0  0  0  0  0
   28.5498   17.3371    5.4190 H   0  0  0  0  0  0  0  0  0  0  0  0
   28.6971   17.7354    8.1992 H   0  0  0  0  0  0  0  0  0  0  0  0
   27.1972   17.3466   10.2936 H   0  0  0  0  0  0  0  0  0  0  0  0
   23.6967   14.8719    8.2805 H   0  0  0  0  0  0  0  0  0  0  0  0
   21.8148   14.2859    9.8059 H   0  0  0  0  0  0  0  0  0  0  0  0
   21.7321   15.2248   12.1339 H   0  0  0  0  0  0  0  0  0  0  0  0
   26.5819   17.1731   11.7664 H   0  0  0  0  0  0  0  0  0  0  0  0
   25.6683   18.5683   11.2288 H   0  0  0  0  0  0  0  0  0  0  0  0
   24.5232   19.5276   13.8285 H   0  0  0  0  0  0  0  0  0  0  0  0
   24.2484   17.9187   15.6647 H   0  0  0  0  0  0  0  0  0  0  0  0
   25.9995   17.5181   15.5946 H   0  0  0  0  0  0  0  0  0  0  0  0
   24.7703   20.2451   16.2300 H   0  0  0  0  0  0  0  0  0  0  0  0
   25.5962   19.1264   17.3839 H   0  0  0  0  0  0  0  0  0  0  0  0
   27.8923   20.8783   14.3766 H   0  0  0  0  0  0  0  0  0  0  0  0
   24.1442   15.2646    6.6690 H   0  0  0  0  0  0  0  0  0  0  0  0
   23.1007   11.6648    3.6517 H   0  0  0  0  0  0  0  0  0  0  0  0
  1  2  1  0
  2  3  1  0
  3  4  2  0
  4  5  1  0
  5  6  1  0
  6  7  2  0
  6  8  2  0
  6  9  1  0
  9 10  1  0
 10 11  2  0
 11 12  1  0
 12 13  2  0
 13 14  1  0
 14 15  1  0
 15 16  2  0
 16 17  1  0
 17 18  2  0
 18 19  1  0
 19 20  2  0
 20 21  1  0
 21 22  2  0
 22 23  1  0
 23 24  1  0
 24 25  1  0
 25 26  1  0
 26 27  1  0
 27 28  1  0
 28 29  2  0
 28 30  1  0
 30 31  1  0
 31 32  2  0
 24 33  1  0
 33 34  2  0
 16 35  1  0
 35 36  2  0
  5 37  1  0
 37 38  2  0
 38  3  1  0
 36 10  1  0
 35 13  1  0
 22 17  1  0
 31 25  1  0
 33 21  1  0
  1 39  1  0
  1 40  1  0
  1 41  1  0
  2 42  1  0
  2 43  1  0
  4 44  1  0
 11 45  1  0
 12 46  1  0
 14 47  1  0
 15 48  1  0
 18 49  1  0
 19 50  1  0
 20 51  1  0
 23 52  1  0
 23 53  1  0
 25 54  1  1
 26 55  1  0
 26 56  1  0
 27 57  1  0
 27 58  1  0
 30 59  1  0
 36 60  1  0
 37 61  1  0
M  END
>  <meeko>  (382) 
{"is_sidechain": [true], "free_energy": -12.8, "intermolecular_energy": 0.0, "internal_energy": -12.8, "cluster_size": 2, "cluster_id": 2, "rank_in_cluster": 1}

>  <_RMSD_MCS_to_ref>  (382) 
1.4918542526370029

$$$$
ligand
     RDKit          3D

 55 59  0  0  0  0  0  0  0  0999 V2000
   24.8710    9.6160    7.7820 C   0  0  0  0  0  0  0  0  0  0  0  0
   25.4240   10.9650    7.3490 C   0  0  0  0  0  0  0  0  0  0  0  0
   26.9120   10.9900    7.3500 C   0  0  0  0  0  0  0  0  0  0  0  0
   27.7600   12.0550    7.5870 C   0  0  0  0  0  0  0  0  0  0  0  0
   29.0120   11.5310    7.4320 N   0  0  0  0  0  0  0  0  0  0  0  0
   30.4620   12.3260    7.8030 S   0  0  0  0  0  6  0  0  0  0  0  0
   31.3540   11.9230    6.7290 O   0  0  0  0  0  0  0  0  0  0  0  0
   30.7570   11.9540    9.1750 O   0  0  0  0  0  0  0  0  0  0  0  0
   30.2540   13.9320    7.6980 O   0  0  0  0  0  0  0  0  0  0  0  0
   29.1240   14.4230    8.2780 C   0  0  0  0  0  0  0  0  0  0  0  0
   28.9860   14.2760    9.6000 N   0  0  0  0  0  0  0  0  0  0  0  0
   27.7920   14.6400   10.1120 C   0  0  0  0  0  0  0  0  0  0  0  0
   26.7380   15.1190    9.3530 C   0  0  0  0  0  0  0  0  0  0  0  0
   25.4180   15.3690    9.9140 C   0  0  0  0  0  0  0  0  0  0  0  0
   24.2400   15.0190    9.2290 C   0  0  0  0  0  0  0  0  0  0  0  0
   22.9660   15.2750    9.7780 C   0  0  0  0  0  0  0  0  0  0  0  0
   22.8400   15.8820   11.0290 C   0  0  0  0  0  0  0  0  0  0  0  0
   24.0030   16.2090   11.6960 C   0  0  0  0  0  0  0  0  0  0  0  0
   25.2690   15.9660   11.1640 C   0  0  0  0  0  0  0  0  0  0  0  0
   26.3130   16.4370   12.1240 C   0  0  0  0  0  0  0  0  0  0  0  0
   25.5320   16.8810   13.2660 N   0  0  0  0  0  0  0  0  0  0  0  0
   26.1580   17.6460   14.3370 C   0  0  2  0  0  0  0  0  0  0  0  0
   25.3620   17.6500   15.6410 C   0  0  0  0  0  0  0  0  0  0  0  0
   26.1420   18.4110   16.7010 C   0  0  0  0  0  0  0  0  0  0  0  0
   26.4580   19.8170   16.2470 C   0  0  0  0  0  0  0  0  0  0  0  0
   26.6610   20.7310   17.0420 O   0  0  0  0  0  0  0  0  0  0  0  0
   26.5830   20.0150   14.8950 N   0  0  0  0  0  0  0  0  0  0  0  0
   26.4580   19.0850   13.8870 C   0  0  0  0  0  0  0  0  0  0  0  0
   26.6700   19.4040   12.7180 O   0  0  0  0  0  0  0  0  0  0  0  0
   24.1700   16.8440   13.0090 C   0  0  0  0  0  0  0  0  0  0  0  0
   23.2580   17.2590   13.6960 O   0  0  0  0  0  0  0  0  0  0  0  0
   27.0230   15.2570    8.0070 C   0  0  0  0  0  0  0  0  0  0  0  0
   28.2020   14.9150    7.4430 N   0  0  0  0  0  0  0  0  0  0  0  0
   28.9050   10.2030    7.1580 C   0  0  0  0  0  0  0  0  0  0  0  0
   27.6390    9.8380    7.1100 N   0  0  0  0  0  0  0  0  0  0  0  0
   24.8497    9.5640    8.8806 H   0  0  0  0  0  0  0  0  0  0  0  0
   23.8507    9.4948    7.3893 H   0  0  0  0  0  0  0  0  0  0  0  0
   25.5127    8.8135    7.3893 H   0  0  0  0  0  0  0  0  0  0  0  0
   25.0669   11.1842    6.3319 H   0  0  0  0  0  0  0  0  0  0  0  0
   25.0734   11.7199    8.0682 H   0  0  0  0  0  0  0  0  0  0  0  0
   27.4885   13.0899    7.8425 H   0  0  0  0  0  0  0  0  0  0  0  0
   27.6472   14.5507   11.1988 H   0  0  0  0  0  0  0  0  0  0  0  0
   24.3140   14.5352    8.2439 H   0  0  0  0  0  0  0  0  0  0  0  0
   22.0636   14.9938    9.2153 H   0  0  0  0  0  0  0  0  0  0  0  0
   21.8524   16.0914   11.4658 H   0  0  0  0  0  0  0  0  0  0  0  0
   26.9912   15.6174   12.4037 H   0  0  0  0  0  0  0  0  0  0  0  0
   26.9593   17.2244   11.7089 H   0  0  0  0  0  0  0  0  0  0  0  0
   27.1036   17.1280   14.5549 H   0  0  0  0  0  0  0  0  0  0  0  0
   24.3904   18.1391   15.4773 H   0  0  0  0  0  0  0  0  0  0  0  0
   25.1965   16.6154   15.9759 H   0  0  0  0  0  0  0  0  0  0  0  0
   25.5425   18.4582   17.6221 H   0  0  0  0  0  0  0  0  0  0  0  0
   27.0901   17.8829   16.8802 H   0  0  0  0  0  0  0  0  0  0  0  0
   26.7966   20.9776   14.5974 H   0  0  0  0  0  0  0  0  0  0  0  0
   26.2405   15.6713    7.3544 H   0  0  0  0  0  0  0  0  0  0  0  0
   29.7576    9.5265    6.9984 H   0  0  0  0  0  0  0  0  0  0  0  0
  1  2  1  0
  2  3  1  0
  3  4  2  0
  4  5  1  0
  5  6  1  0
  6  7  2  0
  6  8  2  0
  6  9  1  0
  9 10  1  0
 10 11  2  0
 11 12  1  0
 12 13  2  0
 13 14  1  0
 14 15  2  0
 15 16  1  0
 16 17  2  0
 17 18  1  0
 18 19  2  0
 19 20  1  0
 20 21  1  0
 21 22  1  0
 22 23  1  0
 23 24  1  0
 24 25  1  0
 25 26  2  0
 25 27  1  0
 27 28  1  0
 28 29  2  0
 21 30  1  0
 30 31  2  0
 13 32  1  0
 32 33  2  0
  5 34  1  0
 34 35  2  0
 35  3  1  0
 33 10  1  0
 19 14  1  0
 28 22  1  0
 30 18  1  0
  1 36  1  0
  1 37  1  0
  1 38  1  0
  2 39  1  0
  2 40  1  0
  4 41  1  0
 12 42  1  0
 15 43  1  0
 16 44  1  0
 17 45  1  0
 20 46  1  0
 20 47  1  0
 22 48  1  1
 23 49  1  0
 23 50  1  0
 24 51  1  0
 24 52  1  0
 27 53  1  0
 32 54  1  0
 34 55  1  0
M  END
>  <meeko>  (383) 
{"is_sidechain": [true], "free_energy": -12.8, "intermolecular_energy": 0.0, "internal_energy": -12.8, "cluster_size": 15, "cluster_id": 1, "rank_in_cluster": 1}

>  <_RMSD_MCS_to_ref>  (383) 
1.1106619897860714

$$$$
ligand
     RDKit          3D

 61 66  0  0  0  0  0  0  0  0999 V2000
   24.8710    9.6160    7.7820 C   0  0  0  0  0  0  0  0  0  0  0  0
   25.4240   10.9650    7.3490 C   0  0  0  0  0  0  0  0  0  0  0  0
   26.8740   10.8980    7.0190 C   0  0  0  0  0  0  0  0  0  0  0  0
   27.9500   11.4100    7.7160 C   0  0  0  0  0  0  0  0  0  0  0  0
   29.0370   11.0320    6.9810 N   0  0  0  0  0  0  0  0  0  0  0  0
   30.6150   11.5760    7.2080 S   0  0  0  0  0  6  0  0  0  0  0  0
   30.8800   11.3630    8.6200 O   0  0  0  0  0  0  0  0  0  0  0  0
   31.3900   10.9040    6.1810 O   0  0  0  0  0  0  0  0  0  0  0  0
   30.5880   13.1760    6.8990 O   0  0  0  0  0  0  0  0  0  0  0  0
   29.4210   13.8890    6.7950 C   0  0  0  0  0  0  0  0  0  0  0  0
   28.6420   14.3240    7.8620 C   0  0  0  0  0  0  0  0  0  0  0  0
   27.4620   15.0520    7.6300 C   0  0  0  0  0  0  0  0  0  0  0  0
   26.6650   15.4920    8.7850 C   0  0  0  0  0  0  0  0  0  0  0  0
   25.3850   14.9360    9.0230 C   0  0  0  0  0  0  0  0  0  0  0  0
   24.6100   15.3370   10.1140 C   0  0  0  0  0  0  0  0  0  0  0  0
   25.1410   16.3020   10.9470 C   0  0  0  0  0  0  0  0  0  0  0  0
   26.3950   16.8700   10.7390 C   0  0  0  0  0  0  0  0  0  0  0  0
   27.1700   16.4740    9.6610 C   0  0  0  0  0  0  0  0  0  0  0  0
   26.6910   17.8620   11.8130 C   0  0  0  0  0  0  0  0  0  0  0  0
   25.4570   17.8680   12.5890 N   0  0  0  0  0  0  0  0  0  0  0  0
   25.3350   18.4950   13.9000 C   0  0  2  0  0  0  0  0  0  0  0  0
   26.2850   19.6760   14.0730 C   0  0  0  0  0  0  0  0  0  0  0  0
   26.0350   20.3300   15.4240 C   0  0  0  0  0  0  0  0  0  0  0  0
   26.1670   19.3270   16.5470 C   0  0  0  0  0  0  0  0  0  0  0  0
   26.6400   19.6240   17.6400 O   0  0  0  0  0  0  0  0  0  0  0  0
   25.7130   18.0580   16.2930 N   0  0  0  0  0  0  0  0  0  0  0  0
   25.5660   17.4950   15.0460 C   0  0  0  0  0  0  0  0  0  0  0  0
   25.6340   16.2770   14.9020 O   0  0  0  0  0  0  0  0  0  0  0  0
   24.5610   16.9040   12.1520 C   0  0  0  0  0  0  0  0  0  0  0  0
   23.4960   16.5910   12.6470 O   0  0  0  0  0  0  0  0  0  0  0  0
   27.0780   15.3370    6.2890 C   0  0  0  0  0  0  0  0  0  0  0  0
   25.9310   16.0350    5.9060 C   0  0  0  0  0  0  0  0  0  0  0  0
   25.5840   16.2950    4.6300 N   0  0  0  0  0  0  0  0  0  0  0  0
   26.4270   15.8330    3.7030 C   0  0  0  0  0  0  0  0  0  0  0  0
   27.5560   15.1470    3.9360 N   0  0  0  0  0  0  0  0  0  0  0  0
   27.8690   14.9050    5.2160 C   0  0  0  0  0  0  0  0  0  0  0  0
   29.0260   14.1920    5.4900 C   0  0  0  0  0  0  0  0  0  0  0  0
   28.6140   10.3980    5.8570 C   0  0  0  0  0  0  0  0  0  0  0  0
   27.3030   10.2750    5.8630 N   0  0  0  0  0  0  0  0  0  0  0  0
   24.8497    9.5640    8.8806 H   0  0  0  0  0  0  0  0  0  0  0  0
   23.8507    9.4948    7.3893 H   0  0  0  0  0  0  0  0  0  0  0  0
   25.5127    8.8135    7.3893 H   0  0  0  0  0  0  0  0  0  0  0  0
   24.8734   11.3046    6.4593 H   0  0  0  0  0  0  0  0  0  0  0  0
   25.3003   11.6659    8.1877 H   0  0  0  0  0  0  0  0  0  0  0  0
   27.9351   11.9902    8.6504 H   0  0  0  0  0  0  0  0  0  0  0  0
   28.9509   14.0971    8.8931 H   0  0  0  0  0  0  0  0  0  0  0  0
   24.9927   14.1727    8.3349 H   0  0  0  0  0  0  0  0  0  0  0  0
   23.6173   14.9018   10.3018 H   0  0  0  0  0  0  0  0  0  0  0  0
   28.1620   16.9182    9.4917 H   0  0  0  0  0  0  0  0  0  0  0  0
   27.5447   17.5395   12.4271 H   0  0  0  0  0  0  0  0  0  0  0  0
   26.9704   18.8537   11.4277 H   0  0  0  0  0  0  0  0  0  0  0  0
   24.3001   18.8645   13.9491 H   0  0  0  0  0  0  0  0  0  0  0  0
   27.3250   19.3211   14.0236 H   0  0  0  0  0  0  0  0  0  0  0  0
   26.1109   20.4089   13.2714 H   0  0  0  0  0  0  0  0  0  0  0  0
   26.7684   21.1360   15.5742 H   0  0  0  0  0  0  0  0  0  0  0  0
   25.0112   20.7321   15.4333 H   0  0  0  0  0  0  0  0  0  0  0  0
   25.4605   17.4767   17.1050 H   0  0  0  0  0  0  0  0  0  0  0  0
   25.2638   16.3982    6.7016 H   0  0  0  0  0  0  0  0  0  0  0  0
   26.1722   16.0334    2.6518 H   0  0  0  0  0  0  0  0  0  0  0  0
   29.6535   13.8538    4.6522 H   0  0  0  0  0  0  0  0  0  0  0  0
   29.2740   10.0377    5.0541 H   0  0  0  0  0  0  0  0  0  0  0  0
  1  2  1  0
  2  3  1  0
  3  4  2  0
  4  5  1  0
  5  6  1  0
  6  7  2  0
  6  8  2  0
  6  9  1  0
  9 10  1  0
 10 11  2  0
 11 12  1  0
 12 13  1  0
 13 14  2  0
 14 15  1  0
 15 16  2  0
 16 17  1  0
 17 18  2  0
 17 19  1  0
 19 20  1  0
 20 21  1  0
 21 22  1  0
 22 23  1  0
 23 24  1  0
 24 25  2  0
 24 26  1  0
 26 27  1  0
 27 28  2  0
 20 29  1  0
 29 30  2  0
 12 31  2  0
 31 32  1  0
 32 33  2  0
 33 34  1  0
 34 35  2  0
 35 36  1  0
 36 37  2  0
  5 38  1  0
 38 39  2  0
 39  3  1  0
 37 10  1  0
 18 13  1  0
 27 21  1  0
 36 31  1  0
 29 16  1  0
  1 40  1  0
  1 41  1  0
  1 42  1  0
  2 43  1  0
  2 44  1  0
  4 45  1  0
 11 46  1  0
 14 47  1  0
 15 48  1  0
 18 49  1  0
 19 50  1  0
 19 51  1  0
 21 52  1  1
 22 53  1  0
 22 54  1  0
 23 55  1  0
 23 56  1  0
 26 57  1  0
 32 58  1  0
 34 59  1  0
 37 60  1  0
 38 61  1  0
M  END
>  <meeko>  (384) 
{"is_sidechain": [true], "free_energy": -12.8, "intermolecular_energy": 0.0, "internal_energy": -12.8, "cluster_size": 20, "cluster_id": 1, "rank_in_cluster": 1}

>  <_RMSD_MCS_to_ref>  (384) 
1.8626433961047486

$$$$
ligand
     RDKit          3D

 58 63  0  0  0  0  0  0  0  0999 V2000
   24.8710    9.6160    7.7820 C   0  0  0  0  0  0  0  0  0  0  0  0
   25.4240   10.9650    7.3490 C   0  0  0  0  0  0  0  0  0  0  0  0
   26.8730   10.9000    7.0200 C   0  0  0  0  0  0  0  0  0  0  0  0
   27.5700   11.5570    6.0250 C   0  0  0  0  0  0  0  0  0  0  0  0
   28.8510   11.1030    6.1560 N   0  0  0  0  0  0  0  0  0  0  0  0
   30.2060   11.7280    5.3620 S   0  0  0  0  0  6  0  0  0  0  0  0
   31.3220   11.0490    5.9930 O   0  0  0  0  0  0  0  0  0  0  0  0
   29.8870   11.5680    3.9560 O   0  0  0  0  0  0  0  0  0  0  0  0
   30.2320   13.3060    5.7460 O   0  0  0  0  0  0  0  0  0  0  0  0
   29.3160   13.8460    6.5600 C   0  0  0  0  0  0  0  0  0  0  0  0
   29.5670   13.7180    7.8670 N   0  0  0  0  0  0  0  0  0  0  0  0
   28.5070   14.3200    8.4430 N   0  0  0  0  0  0  0  0  0  0  0  0
   27.6170   14.8500    7.5530 C   0  0  0  0  0  0  0  0  0  0  0  0
   26.4240   15.5440    7.6800 C   0  0  0  0  0  0  0  0  0  0  0  0
   25.8160   15.9280    8.9530 C   0  0  0  0  0  0  0  0  0  0  0  0
   24.4800   15.5690    9.2710 C   0  0  0  0  0  0  0  0  0  0  0  0
   23.8880   15.9440   10.4820 C   0  0  0  0  0  0  0  0  0  0  0  0
   24.6600   16.6690   11.3670 C   0  0  0  0  0  0  0  0  0  0  0  0
   25.9760   17.0260   11.0970 C   0  0  0  0  0  0  0  0  0  0  0  0
   26.5660   16.6610    9.8980 C   0  0  0  0  0  0  0  0  0  0  0  0
   26.5360   17.8100   12.2360 C   0  0  0  0  0  0  0  0  0  0  0  0
   25.4540   17.7720   13.2120 N   0  0  0  0  0  0  0  0  0  0  0  0
   25.4800   18.6130   14.4030 C   0  0  2  0  0  0  0  0  0  0  0  0
   26.1360   19.9750   14.1810 C   0  0  0  0  0  0  0  0  0  0  0  0
   26.0540   20.7890   15.4640 C   0  0  0  0  0  0  0  0  0  0  0  0
   26.6930   20.0550   16.6200 C   0  0  0  0  0  0  0  0  0  0  0  0
   27.1210   20.6410   17.6100 O   0  0  0  0  0  0  0  0  0  0  0  0
   26.6970   18.6840   16.5530 N   0  0  0  0  0  0  0  0  0  0  0  0
   26.1430   17.8830   15.5820 C   0  0  0  0  0  0  0  0  0  0  0  0
   26.1040   16.6620   15.7320 O   0  0  0  0  0  0  0  0  0  0  0  0
   24.3070   17.1920   12.6910 C   0  0  0  0  0  0  0  0  0  0  0  0
   23.1980   17.1250   13.1840 O   0  0  0  0  0  0  0  0  0  0  0  0
   25.7670   15.8580    6.5350 N   0  0  0  0  0  0  0  0  0  0  0  0
   26.3250   15.5190    5.3570 C   0  0  0  0  0  0  0  0  0  0  0  0
   27.4800   14.8720    5.1560 N   0  0  0  0  0  0  0  0  0  0  0  0
   28.1120   14.5360    6.2990 C   0  0  0  0  0  0  0  0  0  0  0  0
   28.9230   10.2830    7.2350 C   0  0  0  0  0  0  0  0  0  0  0  0
   27.7290   10.1140    7.7680 N   0  0  0  0  0  0  0  0  0  0  0  0
   24.8497    9.5640    8.8806 H   0  0  0  0  0  0  0  0  0  0  0  0
   23.8507    9.4948    7.3893 H   0  0  0  0  0  0  0  0  0  0  0  0
   25.5127    8.8135    7.3893 H   0  0  0  0  0  0  0  0  0  0  0  0
   24.8737   11.3040    6.4589 H   0  0  0  0  0  0  0  0  0  0  0  0
   25.2998   11.6654    8.1880 H   0  0  0  0  0  0  0  0  0  0  0  0
   27.1816   12.2811    5.2936 H   0  0  0  0  0  0  0  0  0  0  0  0
   28.3798   14.3753    9.4636 H   0  0  0  0  0  0  0  0  0  0  0  0
   23.8957   14.9815    8.5475 H   0  0  0  0  0  0  0  0  0  0  0  0
   22.8489   15.6719   10.7192 H   0  0  0  0  0  0  0  0  0  0  0  0
   27.6085   16.9395    9.6844 H   0  0  0  0  0  0  0  0  0  0  0  0
   27.4461   17.3373   12.6338 H   0  0  0  0  0  0  0  0  0  0  0  0
   26.8379   18.8305   11.9576 H   0  0  0  0  0  0  0  0  0  0  0  0
   24.4262   18.8134   14.6468 H   0  0  0  0  0  0  0  0  0  0  0  0
   27.1907   19.8336   13.9026 H   0  0  0  0  0  0  0  0  0  0  0  0
   25.6134   20.5079   13.3730 H   0  0  0  0  0  0  0  0  0  0  0  0
   26.5749   21.7463   15.3152 H   0  0  0  0  0  0  0  0  0  0  0  0
   24.9933   20.9568   15.7022 H   0  0  0  0  0  0  0  0  0  0  0  0
   27.1733   18.1953   17.3245 H   0  0  0  0  0  0  0  0  0  0  0  0
   25.7665   15.8074    4.4543 H   0  0  0  0  0  0  0  0  0  0  0  0
   29.8485    9.8235    7.6123 H   0  0  0  0  0  0  0  0  0  0  0  0
  1  2  1  0
  2  3  1  0
  3  4  2  0
  4  5  1  0
  5  6  1  0
  6  7  2  0
  6  8  2  0
  6  9  1  0
  9 10  1  0
 10 11  2  0
 11 12  1  0
 12 13  1  0
 13 14  2  0
 14 15  1  0
 15 16  2  0
 16 17  1  0
 17 18  2  0
 18 19  1  0
 19 20  2  0
 19 21  1  0
 21 22  1  0
 22 23  1  0
 23 24  1  0
 24 25  1  0
 25 26  1  0
 26 27  2  0
 26 28  1  0
 28 29  1  0
 29 30  2  0
 22 31  1  0
 31 32  2  0
 14 33  1  0
 33 34  2  0
 34 35  1  0
 35 36  2  0
  5 37  1  0
 37 38  2  0
 38  3  1  0
 36 10  1  0
 36 13  1  0
 20 15  1  0
 29 23  1  0
 31 18  1  0
  1 39  1  0
  1 40  1  0
  1 41  1  0
  2 42  1  0
  2 43  1  0
  4 44  1  0
 12 45  1  0
 16 46  1  0
 17 47  1  0
 20 48  1  0
 21 49  1  0
 21 50  1  0
 23 51  1  1
 24 52  1  0
 24 53  1  0
 25 54  1  0
 25 55  1  0
 28 56  1  0
 34 57  1  0
 37 58  1  0
M  END
>  <meeko>  (385) 
{"is_sidechain": [true], "free_energy": -12.78, "intermolecular_energy": 0.0, "internal_energy": -12.78, "cluster_size": 20, "cluster_id": 1, "rank_in_cluster": 1}

>  <_RMSD_MCS_to_ref>  (385) 
1.700848766444504

$$$$
ligand
     RDKit          3D

 60 65  0  0  0  0  0  0  0  0999 V2000
   24.8540    9.4020    7.6050 C   0  0  0  0  0  0  0  0  0  0  0  0
   25.5230   10.7550    7.4270 C   0  0  0  0  0  0  0  0  0  0  0  0
   25.3050   11.3170    6.0660 C   0  0  0  0  0  0  0  0  0  0  0  0
   26.1960   11.9830    5.2470 C   0  0  0  0  0  0  0  0  0  0  0  0
   25.4790   12.2420    4.1130 N   0  0  0  0  0  0  0  0  0  0  0  0
   25.9610   13.2540    2.8560 S   0  0  0  0  0  6  0  0  0  0  0  0
   27.3870   13.0190    2.7170 O   0  0  0  0  0  0  0  0  0  0  0  0
   25.0350   12.9700    1.7760 O   0  0  0  0  0  0  0  0  0  0  0  0
   25.7150   14.7760    3.3870 O   0  0  0  0  0  0  0  0  0  0  0  0
   25.5840   15.0830    4.6940 C   0  0  0  0  0  0  0  0  0  0  0  0
   24.4300   15.3800    5.3780 C   0  0  0  0  0  0  0  0  0  0  0  0
   24.7140   15.6350    6.6830 O   0  0  0  0  0  0  0  0  0  0  0  0
   26.0670   15.5020    6.8440 C   0  0  0  0  0  0  0  0  0  0  0  0
   26.7780   15.6860    8.0430 C   0  0  0  0  0  0  0  0  0  0  0  0
   26.1180   16.0520    9.3040 C   0  0  0  0  0  0  0  0  0  0  0  0
   24.7800   15.6590    9.5730 C   0  0  0  0  0  0  0  0  0  0  0  0
   24.1290   15.9920   10.7700 C   0  0  0  0  0  0  0  0  0  0  0  0
   24.8290   16.7190   11.7110 C   0  0  0  0  0  0  0  0  0  0  0  0
   26.1420   17.1030   11.4570 C   0  0  0  0  0  0  0  0  0  0  0  0
   26.8040   16.7930   10.2820 C   0  0  0  0  0  0  0  0  0  0  0  0
   26.6290   17.8570   12.6170 C   0  0  0  0  0  0  0  0  0  0  0  0
   27.7160   18.3980   12.6820 O   0  0  0  0  0  0  0  0  0  0  0  0
   25.6190   17.8280   13.5670 N   0  0  0  0  0  0  0  0  0  0  0  0
   25.6050   18.6420   14.7780 C   0  0  1  0  0  0  0  0  0  0  0  0
   26.5500   18.1380   15.8680 C   0  0  0  0  0  0  0  0  0  0  0  0
   26.4100   19.0180   17.1010 C   0  0  0  0  0  0  0  0  0  0  0  0
   26.6770   20.4680   16.7730 C   0  0  0  0  0  0  0  0  0  0  0  0
   27.0270   21.2780   17.6260 O   0  0  0  0  0  0  0  0  0  0  0  0
   26.4260   20.8640   15.4830 N   0  0  0  0  0  0  0  0  0  0  0  0
   25.8850   20.1190   14.4610 C   0  0  0  0  0  0  0  0  0  0  0  0
   25.5580   20.6610   13.4050 O   0  0  0  0  0  0  0  0  0  0  0  0
   24.3980   17.2300   13.0420 C   0  0  0  0  0  0  0  0  0  0  0  0
   28.1720   15.4990    7.9390 C   0  0  0  0  0  0  0  0  0  0  0  0
   28.7930   15.1550    6.7350 C   0  0  0  0  0  0  0  0  0  0  0  0
   28.0440   14.9820    5.5660 C   0  0  0  0  0  0  0  0  0  0  0  0
   26.6510   15.1610    5.6260 C   0  0  0  0  0  0  0  0  0  0  0  0
   24.2010   11.8220    4.2900 C   0  0  0  0  0  0  0  0  0  0  0  0
   24.0670   11.2310    5.4600 N   0  0  0  0  0  0  0  0  0  0  0  0
   24.7464    9.1845    8.6779 H   0  0  0  0  0  0  0  0  0  0  0  0
   23.8606    9.4192    7.1330 H   0  0  0  0  0  0  0  0  0  0  0  0
   25.4708    8.6230    7.1330 H   0  0  0  0  0  0  0  0  0  0  0  0
   25.1102   11.4543    8.1690 H   0  0  0  0  0  0  0  0  0  0  0  0
   26.6055   10.6165    7.5650 H   0  0  0  0  0  0  0  0  0  0  0  0
   27.2431   12.2449    5.4592 H   0  0  0  0  0  0  0  0  0  0  0  0
   23.4236   15.4075    4.9347 H   0  0  0  0  0  0  0  0  0  0  0  0
   24.2358   15.0737    8.8171 H   0  0  0  0  0  0  0  0  0  0  0  0
   23.0896   15.6823   10.9534 H   0  0  0  0  0  0  0  0  0  0  0  0
   27.8418   17.1185   10.1173 H   0  0  0  0  0  0  0  0  0  0  0  0
   24.5868   18.5494   15.1838 H   0  0  0  0  0  0  0  0  0  0  0  0
   26.2929   17.1001   16.1262 H   0  0  0  0  0  0  0  0  0  0  0  0
   27.5871   18.1767   15.5034 H   0  0  0  0  0  0  0  0  0  0  0  0
   25.3877   18.9222   17.4955 H   0  0  0  0  0  0  0  0  0  0  0  0
   27.1476   18.6893   17.8480 H   0  0  0  0  0  0  0  0  0  0  0  0
   26.6727   21.8370   15.2522 H   0  0  0  0  0  0  0  0  0  0  0  0
   24.0486   16.4105   13.6872 H   0  0  0  0  0  0  0  0  0  0  0  0
   23.5557   17.9353   12.9867 H   0  0  0  0  0  0  0  0  0  0  0  0
   28.7929   15.6285    8.8377 H   0  0  0  0  0  0  0  0  0  0  0  0
   29.8841   15.0186    6.7062 H   0  0  0  0  0  0  0  0  0  0  0  0
   28.5350   14.7115    4.6196 H   0  0  0  0  0  0  0  0  0  0  0  0
   23.3901   11.9561    3.5589 H   0  0  0  0  0  0  0  0  0  0  0  0
  1  2  1  0
  2  3  1  0
  3  4  2  0
  4  5  1  0
  5  6  1  0
  6  7  2  0
  6  8  2  0
  6  9  1  0
  9 10  1  0
 10 11  2  0
 11 12  1  0
 12 13  1  0
 13 14  2  0
 14 15  1  0
 15 16  2  0
 16 17  1  0
 17 18  2  0
 18 19  1  0
 19 20  2  0
 19 21  1  0
 21 22  2  0
 21 23  1  0
 23 24  1  0
 24 25  1  0
 25 26  1  0
 26 27  1  0
 27 28  2  0
 27 29  1  0
 29 30  1  0
 30 31  2  0
 23 32  1  0
 14 33  1  0
 33 34  2  0
 34 35  1  0
 35 36  2  0
  5 37  1  0
 37 38  2  0
 38  3  1  0
 36 10  1  0
 36 13  1  0
 20 15  1  0
 30 24  1  0
 32 18  1  0
  1 39  1  0
  1 40  1  0
  1 41  1  0
  2 42  1  0
  2 43  1  0
  4 44  1  0
 11 45  1  0
 16 46  1  0
 17 47  1  0
 20 48  1  0
 24 49  1  1
 25 50  1  0
 25 51  1  0
 26 52  1  0
 26 53  1  0
 29 54  1  0
 32 55  1  0
 32 56  1  0
 33 57  1  0
 34 58  1  0
 35 59  1  0
 37 60  1  0
M  END
>  <meeko>  (386) 
{"is_sidechain": [true], "free_energy": -12.77, "intermolecular_energy": 0.0, "internal_energy": -12.77, "cluster_size": 10, "cluster_id": 2, "rank_in_cluster": 1}

>  <_RMSD_MCS_to_ref>  (386) 
0.8008789615860252

$$$$
ligand
     RDKit          3D

 53 57  0  0  0  0  0  0  0  0999 V2000
   24.8540    9.4020    7.6050 C   0  0  0  0  0  0  0  0  0  0  0  0
   25.5230   10.7550    7.4270 C   0  0  0  0  0  0  0  0  0  0  0  0
   25.0800   11.4420    6.1840 C   0  0  0  0  0  0  0  0  0  0  0  0
   25.4550   12.6790    5.6960 C   0  0  0  0  0  0  0  0  0  0  0  0
   24.7550   12.8040    4.5300 N   0  0  0  0  0  0  0  0  0  0  0  0
   24.6450   14.1780    3.5600 S   0  0  0  0  0  6  0  0  0  0  0  0
   23.2910   14.6560    3.7860 O   0  0  0  0  0  0  0  0  0  0  0  0
   25.0710   13.7640    2.2360 O   0  0  0  0  0  0  0  0  0  0  0  0
   25.6650   15.3050    4.1470 O   0  0  0  0  0  0  0  0  0  0  0  0
   25.9360   15.3840    5.4570 C   0  0  0  0  0  0  0  0  0  0  0  0
   24.9950   15.7720    6.3770 C   0  0  0  0  0  0  0  0  0  0  0  0
   25.6490   15.7140    7.5860 N   0  0  0  0  0  0  0  0  0  0  0  0
   25.1610   16.0200    8.8840 C   0  0  0  0  0  0  0  0  0  0  0  0
   23.9710   15.4240    9.3660 C   0  0  0  0  0  0  0  0  0  0  0  0
   23.4930   15.7260   10.6460 C   0  0  0  0  0  0  0  0  0  0  0  0
   24.2180   16.6220   11.4070 C   0  0  0  0  0  0  0  0  0  0  0  0
   25.3920   17.2170   10.9530 C   0  0  0  0  0  0  0  0  0  0  0  0
   25.8800   16.9270    9.6900 C   0  0  0  0  0  0  0  0  0  0  0  0
   25.9520   18.1070   12.0120 C   0  0  0  0  0  0  0  0  0  0  0  0
   24.9330   18.0490   13.0520 N   0  0  0  0  0  0  0  0  0  0  0  0
   25.1750   18.6040   14.3790 C   0  0  1  0  0  0  0  0  0  0  0  0
   26.2880   17.8950   15.1490 C   0  0  0  0  0  0  0  0  0  0  0  0
   26.4130   18.5110   16.5340 C   0  0  0  0  0  0  0  0  0  0  0  0
   26.6660   19.9980   16.4530 C   0  0  0  0  0  0  0  0  0  0  0  0
   27.2060   20.6210   17.3620 O   0  0  0  0  0  0  0  0  0  0  0  0
   26.1850   20.6440   15.3420 N   0  0  0  0  0  0  0  0  0  0  0  0
   25.4470   20.1150   14.3060 C   0  0  0  0  0  0  0  0  0  0  0  0
   24.9630   20.8510   13.4480 O   0  0  0  0  0  0  0  0  0  0  0  0
   23.9540   17.1080   12.7650 C   0  0  0  0  0  0  0  0  0  0  0  0
   23.0470   16.7170   13.4720 O   0  0  0  0  0  0  0  0  0  0  0  0
   26.9240   15.2920    7.3850 N   0  0  0  0  0  0  0  0  0  0  0  0
   27.1030   15.0960    6.0860 N   0  0  0  0  0  0  0  0  0  0  0  0
   23.9720   11.7080    4.3600 C   0  0  0  0  0  0  0  0  0  0  0  0
   24.1540   10.8520    5.3440 N   0  0  0  0  0  0  0  0  0  0  0  0
   24.7464    9.1845    8.6779 H   0  0  0  0  0  0  0  0  0  0  0  0
   23.8606    9.4192    7.1330 H   0  0  0  0  0  0  0  0  0  0  0  0
   25.4708    8.6230    7.1330 H   0  0  0  0  0  0  0  0  0  0  0  0
   25.2741   11.3895    8.2904 H   0  0  0  0  0  0  0  0  0  0  0  0
   26.6077   10.5881    7.3522 H   0  0  0  0  0  0  0  0  0  0  0  0
   26.1565   13.3982    6.1439 H   0  0  0  0  0  0  0  0  0  0  0  0
   23.9511   16.0641    6.1898 H   0  0  0  0  0  0  0  0  0  0  0  0
   23.4177   14.7179    8.7294 H   0  0  0  0  0  0  0  0  0  0  0  0
   22.5718   15.2658   11.0327 H   0  0  0  0  0  0  0  0  0  0  0  0
   26.8067   17.3931    9.3239 H   0  0  0  0  0  0  0  0  0  0  0  0
   26.9164   17.7270   12.3802 H   0  0  0  0  0  0  0  0  0  0  0  0
   26.1578   19.1284   11.6595 H   0  0  0  0  0  0  0  0  0  0  0  0
   24.2489   18.4305   14.9467 H   0  0  0  0  0  0  0  0  0  0  0  0
   26.0464   16.8260   15.2429 H   0  0  0  0  0  0  0  0  0  0  0  0
   27.2394   18.0079   14.6085 H   0  0  0  0  0  0  0  0  0  0  0  0
   25.4798   18.3361   17.0894 H   0  0  0  0  0  0  0  0  0  0  0  0
   27.2653   18.0414   17.0470 H   0  0  0  0  0  0  0  0  0  0  0  0
   26.4026   21.6485   15.2743 H   0  0  0  0  0  0  0  0  0  0  0  0
   23.2815   11.5561    3.5173 H   0  0  0  0  0  0  0  0  0  0  0  0
  1  2  1  0
  2  3  1  0
  3  4  2  0
  4  5  1  0
  5  6  1  0
  6  7  2  0
  6  8  2  0
  6  9  1  0
  9 10  1  0
 10 11  2  0
 11 12  1  0
 12 13  1  0
 13 14  2  0
 14 15  1  0
 15 16  2  0
 16 17  1  0
 17 18  2  0
 17 19  1  0
 19 20  1  0
 20 21  1  0
 21 22  1  0
 22 23  1  0
 23 24  1  0
 24 25  2  0
 24 26  1  0
 26 27  1  0
 27 28  2  0
 20 29  1  0
 29 30  2  0
 12 31  1  0
 31 32  2  0
  5 33  1  0
 33 34  2  0
 34  3  1  0
 32 10  1  0
 18 13  1  0
 27 21  1  0
 29 16  1  0
  1 35  1  0
  1 36  1  0
  1 37  1  0
  2 38  1  0
  2 39  1  0
  4 40  1  0
 11 41  1  0
 14 42  1  0
 15 43  1  0
 18 44  1  0
 19 45  1  0
 19 46  1  0
 21 47  1  1
 22 48  1  0
 22 49  1  0
 23 50  1  0
 23 51  1  0
 26 52  1  0
 33 53  1  0
M  END
>  <meeko>  (387) 
{"is_sidechain": [true], "free_energy": -12.77, "intermolecular_energy": 0.0, "internal_energy": -12.77, "cluster_size": 17, "cluster_id": 1, "rank_in_cluster": 1}

>  <_RMSD_MCS_to_ref>  (387) 
0.4525338538594525

$$$$
ligand
     RDKit          3D

 53 57  0  0  0  0  0  0  0  0999 V2000
   24.8540    9.4020    7.6050 C   0  0  0  0  0  0  0  0  0  0  0  0
   25.5230   10.7550    7.4270 C   0  0  0  0  0  0  0  0  0  0  0  0
   25.0060   11.4860    6.2380 C   0  0  0  0  0  0  0  0  0  0  0  0
   25.4510   12.6710    5.6840 C   0  0  0  0  0  0  0  0  0  0  0  0
   24.6010   12.8890    4.6360 N   0  0  0  0  0  0  0  0  0  0  0  0
   24.7400   14.1410    3.5150 S   0  0  0  0  0  6  0  0  0  0  0  0
   25.9700   13.8880    2.7880 O   0  0  0  0  0  0  0  0  0  0  0  0
   23.4610   14.1350    2.8280 O   0  0  0  0  0  0  0  0  0  0  0  0
   24.8500   15.5480    4.3290 O   0  0  0  0  0  0  0  0  0  0  0  0
   25.2630   15.5810    5.6030 C   0  0  0  0  0  0  0  0  0  0  0  0
   24.4270   15.9160    6.6380 C   0  0  0  0  0  0  0  0  0  0  0  0
   25.2140   15.8210    7.7630 N   0  0  0  0  0  0  0  0  0  0  0  0
   24.8680   16.0630    9.1170 C   0  0  0  0  0  0  0  0  0  0  0  0
   23.6730   15.5070    9.6390 C   0  0  0  0  0  0  0  0  0  0  0  0
   23.2890   15.7250   10.9690 C   0  0  0  0  0  0  0  0  0  0  0  0
   24.1130   16.4960   11.7660 C   0  0  0  0  0  0  0  0  0  0  0  0
   25.2860   17.0350   11.2460 C   0  0  0  0  0  0  0  0  0  0  0  0
   25.6920   16.8450    9.9360 C   0  0  0  0  0  0  0  0  0  0  0  0
   25.9450   17.8040   12.3060 C   0  0  0  0  0  0  0  0  0  0  0  0
   26.9530   18.4630   12.1470 O   0  0  0  0  0  0  0  0  0  0  0  0
   25.1900   17.6310   13.4550 N   0  0  0  0  0  0  0  0  0  0  0  0
   25.3660   18.4100   14.6780 C   0  0  1  0  0  0  0  0  0  0  0  0
   26.4620   17.8730   15.5970 C   0  0  0  0  0  0  0  0  0  0  0  0
   26.5170   18.7170   16.8610 C   0  0  0  0  0  0  0  0  0  0  0  0
   26.7390   20.1760   16.5370 C   0  0  0  0  0  0  0  0  0  0  0  0
   27.2310   20.9580   17.3460 O   0  0  0  0  0  0  0  0  0  0  0  0
   26.2840   20.6120   15.3180 N   0  0  0  0  0  0  0  0  0  0  0  0
   25.6070   19.8930   14.3600 C   0  0  0  0  0  0  0  0  0  0  0  0
   25.1470   20.4590   13.3690 O   0  0  0  0  0  0  0  0  0  0  0  0
   23.9520   16.9110   13.1900 C   0  0  0  0  0  0  0  0  0  0  0  0
   26.4640   15.4340    7.4020 N   0  0  0  0  0  0  0  0  0  0  0  0
   26.4980   15.2900    6.0850 N   0  0  0  0  0  0  0  0  0  0  0  0
   23.7330   11.8500    4.5410 C   0  0  0  0  0  0  0  0  0  0  0  0
   23.9390   10.9880    5.5170 N   0  0  0  0  0  0  0  0  0  0  0  0
   24.7464    9.1845    8.6779 H   0  0  0  0  0  0  0  0  0  0  0  0
   23.8606    9.4192    7.1330 H   0  0  0  0  0  0  0  0  0  0  0  0
   25.4708    8.6230    7.1330 H   0  0  0  0  0  0  0  0  0  0  0  0
   25.3373   11.3628    8.3248 H   0  0  0  0  0  0  0  0  0  0  0  0
   26.5988   10.5824    7.2757 H   0  0  0  0  0  0  0  0  0  0  0  0
   26.2954   13.2955    6.0112 H   0  0  0  0  0  0  0  0  0  0  0  0
   23.3652   16.1976    6.5813 H   0  0  0  0  0  0  0  0  0  0  0  0
   23.0346   14.8924    8.9873 H   0  0  0  0  0  0  0  0  0  0  0  0
   22.3582   15.2946   11.3670 H   0  0  0  0  0  0  0  0  0  0  0  0
   26.6229   17.2897    9.5545 H   0  0  0  0  0  0  0  0  0  0  0  0
   24.4216   18.3087   15.2328 H   0  0  0  0  0  0  0  0  0  0  0  0
   26.2402   16.8287   15.8620 H   0  0  0  0  0  0  0  0  0  0  0  0
   27.4319   17.9202   15.0802 H   0  0  0  0  0  0  0  0  0  0  0  0
   25.5664   18.6111   17.4043 H   0  0  0  0  0  0  0  0  0  0  0  0
   27.3581   18.3660   17.4768 H   0  0  0  0  0  0  0  0  0  0  0  0
   26.4725   21.5991   15.0924 H   0  0  0  0  0  0  0  0  0  0  0  0
   23.8529   16.0362   13.8494 H   0  0  0  0  0  0  0  0  0  0  0  0
   23.0494   17.5134   13.3700 H   0  0  0  0  0  0  0  0  0  0  0  0
   22.9659   11.7423    3.7600 H   0  0  0  0  0  0  0  0  0  0  0  0
  1  2  1  0
  2  3  1  0
  3  4  2  0
  4  5  1  0
  5  6  1  0
  6  7  2  0
  6  8  2  0
  6  9  1  0
  9 10  1  0
 10 11  2  0
 11 12  1  0
 12 13  1  0
 13 14  2  0
 14 15  1  0
 15 16  2  0
 16 17  1  0
 17 18  2  0
 17 19  1  0
 19 20  2  0
 19 21  1  0
 21 22  1  0
 22 23  1  0
 23 24  1  0
 24 25  1  0
 25 26  2  0
 25 27  1  0
 27 28  1  0
 28 29  2  0
 21 30  1  0
 12 31  1  0
 31 32  2  0
  5 33  1  0
 33 34  2  0
 34  3  1  0
 32 10  1  0
 18 13  1  0
 28 22  1  0
 30 16  1  0
  1 35  1  0
  1 36  1  0
  1 37  1  0
  2 38  1  0
  2 39  1  0
  4 40  1  0
 11 41  1  0
 14 42  1  0
 15 43  1  0
 18 44  1  0
 22 45  1  1
 23 46  1  0
 23 47  1  0
 24 48  1  0
 24 49  1  0
 27 50  1  0
 30 51  1  0
 30 52  1  0
 33 53  1  0
M  END
>  <meeko>  (388) 
{"is_sidechain": [true], "free_energy": -12.77, "intermolecular_energy": 0.0, "internal_energy": -12.77, "cluster_size": 19, "cluster_id": 1, "rank_in_cluster": 1}

>  <_RMSD_MCS_to_ref>  (388) 
0.48242374181487496

$$$$
ligand
     RDKit          3D

 52 56  0  0  0  0  0  0  0  0999 V2000
   24.8710    9.6160    7.7820 C   0  0  0  0  0  0  0  0  0  0  0  0
   25.4240   10.9650    7.3490 C   0  0  0  0  0  0  0  0  0  0  0  0
   26.9020   11.0410    7.5020 C   0  0  0  0  0  0  0  0  0  0  0  0
   27.7260   12.1470    7.4360 C   0  0  0  0  0  0  0  0  0  0  0  0
   28.9780   11.6440    7.6430 N   0  0  0  0  0  0  0  0  0  0  0  0
   30.4030   12.5220    7.8480 S   0  0  0  0  0  6  0  0  0  0  0  0
   31.2000   11.6850    8.7270 O   0  0  0  0  0  0  0  0  0  0  0  0
   30.8720   12.8430    6.5130 O   0  0  0  0  0  0  0  0  0  0  0  0
   30.0650   13.8870    8.6610 O   0  0  0  0  0  0  0  0  0  0  0  0
   28.8400   14.3830    8.7020 C   0  0  0  0  0  0  0  0  0  0  0  0
   28.2450   14.9720    7.6940 N   0  0  0  0  0  0  0  0  0  0  0  0
   26.9650   15.3680    8.0090 N   0  0  0  0  0  0  0  0  0  0  0  0
   26.6230   15.0730    9.2510 C   0  0  0  0  0  0  0  0  0  0  0  0
   25.3120   15.3690    9.8500 C   0  0  0  0  0  0  0  0  0  0  0  0
   24.0880   15.0390    9.2250 C   0  0  0  0  0  0  0  0  0  0  0  0
   22.8420   15.3430    9.8120 C   0  0  0  0  0  0  0  0  0  0  0  0
   22.7790   15.9840   11.0460 C   0  0  0  0  0  0  0  0  0  0  0  0
   23.9770   16.2920   11.6570 C   0  0  0  0  0  0  0  0  0  0  0  0
   25.2220   15.9970   11.0920 C   0  0  0  0  0  0  0  0  0  0  0  0
   26.3020   16.4880   12.0050 C   0  0  0  0  0  0  0  0  0  0  0  0
   25.5610   16.9920   13.1530 N   0  0  0  0  0  0  0  0  0  0  0  0
   26.2210   17.7760   14.1920 C   0  0  2  0  0  0  0  0  0  0  0  0
   25.5730   17.6440   15.5690 C   0  0  0  0  0  0  0  0  0  0  0  0
   26.3740   18.4490   16.5810 C   0  0  0  0  0  0  0  0  0  0  0  0
   26.4860   19.8970   16.1650 C   0  0  0  0  0  0  0  0  0  0  0  0
   26.6900   20.7970   16.9750 O   0  0  0  0  0  0  0  0  0  0  0  0
   26.4300   20.1570   14.8180 N   0  0  0  0  0  0  0  0  0  0  0  0
   26.3240   19.2550   13.7850 C   0  0  0  0  0  0  0  0  0  0  0  0
   26.4100   19.6350   12.6170 O   0  0  0  0  0  0  0  0  0  0  0  0
   24.1950   16.9700   12.9390 C   0  0  0  0  0  0  0  0  0  0  0  0
   23.3100   17.4290   13.6340 O   0  0  0  0  0  0  0  0  0  0  0  0
   27.8790   14.2550   10.1080 S   0  0  0  0  0  0  0  0  0  0  0  0
   28.8930   10.3050    7.8520 C   0  0  0  0  0  0  0  0  0  0  0  0
   27.6420    9.9040    7.7650 N   0  0  0  0  0  0  0  0  0  0  0  0
   24.8497    9.5640    8.8806 H   0  0  0  0  0  0  0  0  0  0  0  0
   23.8507    9.4948    7.3893 H   0  0  0  0  0  0  0  0  0  0  0  0
   25.5127    8.8135    7.3893 H   0  0  0  0  0  0  0  0  0  0  0  0
   25.1682   11.1301    6.2920 H   0  0  0  0  0  0  0  0  0  0  0  0
   24.9773   11.7362    7.9938 H   0  0  0  0  0  0  0  0  0  0  0  0
   27.4392   13.1938    7.2575 H   0  0  0  0  0  0  0  0  0  0  0  0
   24.1077   14.5292    8.2505 H   0  0  0  0  0  0  0  0  0  0  0  0
   21.9125   15.0713    9.2903 H   0  0  0  0  0  0  0  0  0  0  0  0
   21.8154   16.2342   11.5139 H   0  0  0  0  0  0  0  0  0  0  0  0
   26.9742   15.6681   12.2980 H   0  0  0  0  0  0  0  0  0  0  0  0
   26.9484   17.2473   11.5406 H   0  0  0  0  0  0  0  0  0  0  0  0
   27.2322   17.3533   14.2860 H   0  0  0  0  0  0  0  0  0  0  0  0
   24.5424   18.0264   15.5283 H   0  0  0  0  0  0  0  0  0  0  0  0
   25.5577   16.5858   15.8691 H   0  0  0  0  0  0  0  0  0  0  0  0
   25.8734   18.3948   17.5590 H   0  0  0  0  0  0  0  0  0  0  0  0
   27.3873   18.0248   16.6386 H   0  0  0  0  0  0  0  0  0  0  0  0
   26.4726   21.1500   14.5477 H   0  0  0  0  0  0  0  0  0  0  0  0
   29.7491    9.6477    8.0642 H   0  0  0  0  0  0  0  0  0  0  0  0
  1  2  1  0
  2  3  1  0
  3  4  2  0
  4  5  1  0
  5  6  1  0
  6  7  2  0
  6  8  2  0
  6  9  1  0
  9 10  1  0
 10 11  2  0
 11 12  1  0
 12 13  2  0
 13 14  1  0
 14 15  2  0
 15 16  1  0
 16 17  2  0
 17 18  1  0
 18 19  2  0
 19 20  1  0
 20 21  1  0
 21 22  1  0
 22 23  1  0
 23 24  1  0
 24 25  1  0
 25 26  2  0
 25 27  1  0
 27 28  1  0
 28 29  2  0
 21 30  1  0
 30 31  2  0
 13 32  1  0
  5 33  1  0
 33 34  2  0
 34  3  1  0
 32 10  1  0
 19 14  1  0
 28 22  1  0
 30 18  1  0
  1 35  1  0
  1 36  1  0
  1 37  1  0
  2 38  1  0
  2 39  1  0
  4 40  1  0
 15 41  1  0
 16 42  1  0
 17 43  1  0
 20 44  1  0
 20 45  1  0
 22 46  1  1
 23 47  1  0
 23 48  1  0
 24 49  1  0
 24 50  1  0
 27 51  1  0
 33 52  1  0
M  END
>  <meeko>  (389) 
{"is_sidechain": [true], "free_energy": -12.77, "intermolecular_energy": 0.0, "internal_energy": -12.77, "cluster_size": 12, "cluster_id": 1, "rank_in_cluster": 1}

>  <_RMSD_MCS_to_ref>  (389) 
1.1006566979156882

$$$$
ligand
     RDKit          3D

 56 60  0  0  0  0  0  0  0  0999 V2000
   24.8540    9.4020    7.6050 C   0  0  0  0  0  0  0  0  0  0  0  0
   25.5230   10.7550    7.4270 C   0  0  0  0  0  0  0  0  0  0  0  0
   26.7390   10.6700    6.5730 C   0  0  0  0  0  0  0  0  0  0  0  0
   27.0420   11.3790    5.4270 C   0  0  0  0  0  0  0  0  0  0  0  0
   28.2810   10.9260    5.0700 N   0  0  0  0  0  0  0  0  0  0  0  0
   29.3140   11.6480    3.9420 S   0  0  0  0  0  6  0  0  0  0  0  0
   30.5990   11.0160    4.1820 O   0  0  0  0  0  0  0  0  0  0  0  0
   28.6370   11.5090    2.6660 O   0  0  0  0  0  0  0  0  0  0  0  0
   29.4500   13.2360    4.3230 O   0  0  0  0  0  0  0  0  0  0  0  0
   28.7140   13.7340    5.3630 C   0  0  0  0  0  0  0  0  0  0  0  0
   27.5510   14.4640    5.1400 C   0  0  0  0  0  0  0  0  0  0  0  0
   26.8070   14.9260    6.2300 C   0  0  0  0  0  0  0  0  0  0  0  0
   27.2240   14.6790    7.5490 C   0  0  0  0  0  0  0  0  0  0  0  0
   26.4280   15.1460    8.6950 C   0  0  0  0  0  0  0  0  0  0  0  0
   25.1030   14.6740    8.8970 C   0  0  0  0  0  0  0  0  0  0  0  0
   24.3210   15.1020    9.9790 C   0  0  0  0  0  0  0  0  0  0  0  0
   24.8900   16.0130   10.8440 C   0  0  0  0  0  0  0  0  0  0  0  0
   26.1760   16.4830   10.6630 C   0  0  0  0  0  0  0  0  0  0  0  0
   26.9690   16.0720    9.6090 C   0  0  0  0  0  0  0  0  0  0  0  0
   26.4600   17.4150   11.7510 C   0  0  0  0  0  0  0  0  0  0  0  0
   27.5210   17.9900   11.9000 O   0  0  0  0  0  0  0  0  0  0  0  0
   25.3250   17.4910   12.5110 N   0  0  0  0  0  0  0  0  0  0  0  0
   25.2720   18.2080   13.7770 C   0  0  1  0  0  0  0  0  0  0  0  0
   26.1360   17.6010   14.8790 C   0  0  0  0  0  0  0  0  0  0  0  0
   25.9650   18.4160   16.1530 C   0  0  0  0  0  0  0  0  0  0  0  0
   26.2990   19.8720   15.9230 C   0  0  0  0  0  0  0  0  0  0  0  0
   26.7170   20.5980   16.8200 O   0  0  0  0  0  0  0  0  0  0  0  0
   26.0580   20.3670   14.6650 N   0  0  0  0  0  0  0  0  0  0  0  0
   25.6630   19.6710   13.5450 C   0  0  0  0  0  0  0  0  0  0  0  0
   25.5830   20.2360   12.4550 O   0  0  0  0  0  0  0  0  0  0  0  0
   24.3570   16.6400   12.0510 C   0  0  0  0  0  0  0  0  0  0  0  0
   23.2620   16.3950   12.5190 O   0  0  0  0  0  0  0  0  0  0  0  0
   28.4230   13.9710    7.7440 C   0  0  0  0  0  0  0  0  0  0  0  0
   29.1690   13.5070    6.6580 C   0  0  0  0  0  0  0  0  0  0  0  0
   28.7000   10.0130    5.9840 C   0  0  0  0  0  0  0  0  0  0  0  0
   27.7780    9.8230    6.9050 N   0  0  0  0  0  0  0  0  0  0  0  0
   24.7464    9.1845    8.6779 H   0  0  0  0  0  0  0  0  0  0  0  0
   23.8606    9.4192    7.1330 H   0  0  0  0  0  0  0  0  0  0  0  0
   25.4708    8.6230    7.1330 H   0  0  0  0  0  0  0  0  0  0  0  0
   24.8072   11.4456    6.9573 H   0  0  0  0  0  0  0  0  0  0  0  0
   25.8308   11.1141    8.4201 H   0  0  0  0  0  0  0  0  0  0  0  0
   26.4266   12.1354    4.9180 H   0  0  0  0  0  0  0  0  0  0  0  0
   27.2189   14.6764    4.1131 H   0  0  0  0  0  0  0  0  0  0  0  0
   25.8806   15.4918    6.0522 H   0  0  0  0  0  0  0  0  0  0  0  0
   24.6786   13.9520    8.1838 H   0  0  0  0  0  0  0  0  0  0  0  0
   23.2980   14.7275   10.1314 H   0  0  0  0  0  0  0  0  0  0  0  0
   27.9924   16.4563    9.4869 H   0  0  0  0  0  0  0  0  0  0  0  0
   24.2359   18.1298   14.1381 H   0  0  0  0  0  0  0  0  0  0  0  0
   25.8236   16.5623   15.0617 H   0  0  0  0  0  0  0  0  0  0  0  0
   27.1918   17.6132   14.5706 H   0  0  0  0  0  0  0  0  0  0  0  0
   24.9213   18.3370   16.4914 H   0  0  0  0  0  0  0  0  0  0  0  0
   26.6524   18.0184   16.9142 H   0  0  0  0  0  0  0  0  0  0  0  0
   26.1886   21.3816   14.5450 H   0  0  0  0  0  0  0  0  0  0  0  0
   28.7789   13.7796    8.7671 H   0  0  0  0  0  0  0  0  0  0  0  0
   30.1113   12.9649    6.8258 H   0  0  0  0  0  0  0  0  0  0  0  0
   29.6743    9.5030    5.9585 H   0  0  0  0  0  0  0  0  0  0  0  0
  1  2  1  0
  2  3  1  0
  3  4  2  0
  4  5  1  0
  5  6  1  0
  6  7  2  0
  6  8  2  0
  6  9  1  0
  9 10  1  0
 10 11  2  0
 11 12  1  0
 12 13  2  0
 13 14  1  0
 14 15  2  0
 15 16  1  0
 16 17  2  0
 17 18  1  0
 18 19  2  0
 18 20  1  0
 20 21  2  0
 20 22  1  0
 22 23  1  0
 23 24  1  0
 24 25  1  0
 25 26  1  0
 26 27  2  0
 26 28  1  0
 28 29  1  0
 29 30  2  0
 22 31  1  0
 31 32  2  0
 13 33  1  0
 33 34  2  0
  5 35  1  0
 35 36  2  0
 36  3  1  0
 34 10  1  0
 19 14  1  0
 29 23  1  0
 31 17  1  0
  1 37  1  0
  1 38  1  0
  1 39  1  0
  2 40  1  0
  2 41  1  0
  4 42  1  0
 11 43  1  0
 12 44  1  0
 15 45  1  0
 16 46  1  0
 19 47  1  0
 23 48  1  1
 24 49  1  0
 24 50  1  0
 25 51  1  0
 25 52  1  0
 28 53  1  0
 33 54  1  0
 34 55  1  0
 35 56  1  0
M  END
>  <meeko>  (390) 
{"is_sidechain": [true], "free_energy": -12.76, "intermolecular_energy": 0.0, "internal_energy": -12.76, "cluster_size": 20, "cluster_id": 1, "rank_in_cluster": 1}

>  <_RMSD_MCS_to_ref>  (390) 
1.0137826306571946

$$$$
ligand
     RDKit          3D

 54 58  0  0  0  0  0  0  0  0999 V2000
   24.8710    9.6160    7.7820 C   0  0  0  0  0  0  0  0  0  0  0  0
   25.4240   10.9650    7.3490 C   0  0  0  0  0  0  0  0  0  0  0  0
   26.8560   11.1300    7.7210 C   0  0  0  0  0  0  0  0  0  0  0  0
   27.4550   12.1510    8.4320 C   0  0  0  0  0  0  0  0  0  0  0  0
   28.7790   11.8140    8.4560 N   0  0  0  0  0  0  0  0  0  0  0  0
   29.9670   12.5800    9.3840 S   0  0  0  0  0  6  0  0  0  0  0  0
   29.7380   12.1290   10.7440 O   0  0  0  0  0  0  0  0  0  0  0  0
   31.2010   12.2750    8.6860 O   0  0  0  0  0  0  0  0  0  0  0  0
   29.7040   14.1860    9.2860 O   0  0  0  0  0  0  0  0  0  0  0  0
   28.6470   14.7530    9.8480 C   0  0  0  0  0  0  0  0  0  0  0  0
   27.4120   14.3370   10.2910 C   0  0  0  0  0  0  0  0  0  0  0  0
   26.6930   15.5120   10.6400 C   0  0  0  0  0  0  0  0  0  0  0  0
   25.2990   15.6760   10.9970 C   0  0  0  0  0  0  0  0  0  0  0  0
   24.2770   15.0200   10.2920 C   0  0  0  0  0  0  0  0  0  0  0  0
   22.9250   15.1670   10.6670 C   0  0  0  0  0  0  0  0  0  0  0  0
   22.5710   15.9640   11.7580 C   0  0  0  0  0  0  0  0  0  0  0  0
   23.5900   16.6000   12.4380 C   0  0  0  0  0  0  0  0  0  0  0  0
   24.9310   16.4720   12.0750 C   0  0  0  0  0  0  0  0  0  0  0  0
   25.7820   17.2600   13.0170 C   0  0  0  0  0  0  0  0  0  0  0  0
   24.8070   17.8530   13.9150 N   0  0  0  0  0  0  0  0  0  0  0  0
   25.1870   18.6310   15.0920 C   0  0  1  0  0  0  0  0  0  0  0  0
   26.3110   17.9320   15.8570 C   0  0  0  0  0  0  0  0  0  0  0  0
   26.6750   18.7330   17.0940 C   0  0  0  0  0  0  0  0  0  0  0  0
   27.0680   20.1430   16.7300 C   0  0  0  0  0  0  0  0  0  0  0  0
   27.9120   20.7710   17.3610 O   0  0  0  0  0  0  0  0  0  0  0  0
   26.3910   20.7120   15.6810 N   0  0  0  0  0  0  0  0  0  0  0  0
   25.5830   20.0810   14.7620 C   0  0  0  0  0  0  0  0  0  0  0  0
   25.1790   20.6950   13.7750 O   0  0  0  0  0  0  0  0  0  0  0  0
   23.5140   17.4620   13.6270 C   0  0  0  0  0  0  0  0  0  0  0  0
   22.4960   17.7320   14.2310 O   0  0  0  0  0  0  0  0  0  0  0  0
   27.5780   16.5550   10.4740 C   0  0  0  0  0  0  0  0  0  0  0  0
   28.7680   16.1000    9.9980 O   0  0  0  0  0  0  0  0  0  0  0  0
   28.9470   10.6350    7.8030 C   0  0  0  0  0  0  0  0  0  0  0  0
   27.7910   10.1780    7.3620 N   0  0  0  0  0  0  0  0  0  0  0  0
   24.8497    9.5640    8.8806 H   0  0  0  0  0  0  0  0  0  0  0  0
   23.8507    9.4948    7.3893 H   0  0  0  0  0  0  0  0  0  0  0  0
   25.5127    8.8135    7.3893 H   0  0  0  0  0  0  0  0  0  0  0  0
   25.3291   11.0529    6.2566 H   0  0  0  0  0  0  0  0  0  0  0  0
   24.8483   11.7478    7.8645 H   0  0  0  0  0  0  0  0  0  0  0  0
   26.9753   13.0348    8.8778 H   0  0  0  0  0  0  0  0  0  0  0  0
   27.0525   13.2998   10.3611 H   0  0  0  0  0  0  0  0  0  0  0  0
   24.5346   14.3816    9.4340 H   0  0  0  0  0  0  0  0  0  0  0  0
   22.1417   14.6487   10.0944 H   0  0  0  0  0  0  0  0  0  0  0  0
   21.5207   16.0804   12.0635 H   0  0  0  0  0  0  0  0  0  0  0  0
   26.4774   16.6061   13.5637 H   0  0  0  0  0  0  0  0  0  0  0  0
   26.4162   18.0033   12.5118 H   0  0  0  0  0  0  0  0  0  0  0  0
   24.2910   18.6890   15.7275 H   0  0  0  0  0  0  0  0  0  0  0  0
   25.9768   16.9283   16.1585 H   0  0  0  0  0  0  0  0  0  0  0  0
   27.1944   17.8519   15.2064 H   0  0  0  0  0  0  0  0  0  0  0  0
   25.8077   18.7646   17.7699 H   0  0  0  0  0  0  0  0  0  0  0  0
   27.5304   18.2473   17.5863 H   0  0  0  0  0  0  0  0  0  0  0  0
   26.5000   21.7299   15.5678 H   0  0  0  0  0  0  0  0  0  0  0  0
   27.3533   17.6088   10.6956 H   0  0  0  0  0  0  0  0  0  0  0  0
   29.9142   10.1306    7.6614 H   0  0  0  0  0  0  0  0  0  0  0  0
  1  2  1  0
  2  3  1  0
  3  4  2  0
  4  5  1  0
  5  6  1  0
  6  7  2  0
  6  8  2  0
  6  9  1  0
  9 10  1  0
 10 11  2  0
 11 12  1  0
 12 13  1  0
 13 14  2  0
 14 15  1  0
 15 16  2  0
 16 17  1  0
 17 18  2  0
 18 19  1  0
 19 20  1  0
 20 21  1  0
 21 22  1  0
 22 23  1  0
 23 24  1  0
 24 25  2  0
 24 26  1  0
 26 27  1  0
 27 28  2  0
 20 29  1  0
 29 30  2  0
 12 31  2  0
 31 32  1  0
  5 33  1  0
 33 34  2  0
 34  3  1  0
 32 10  1  0
 18 13  1  0
 27 21  1  0
 29 17  1  0
  1 35  1  0
  1 36  1  0
  1 37  1  0
  2 38  1  0
  2 39  1  0
  4 40  1  0
 11 41  1  0
 14 42  1  0
 15 43  1  0
 16 44  1  0
 19 45  1  0
 19 46  1  0
 21 47  1  1
 22 48  1  0
 22 49  1  0
 23 50  1  0
 23 51  1  0
 26 52  1  0
 31 53  1  0
 33 54  1  0
M  END
>  <meeko>  (391) 
{"is_sidechain": [true], "free_energy": -12.76, "intermolecular_energy": 0.0, "internal_energy": -12.76, "cluster_size": 19, "cluster_id": 1, "rank_in_cluster": 1}

>  <_RMSD_MCS_to_ref>  (391) 
1.1301287045681514

$$$$
ligand
     RDKit          3D

 57 61  0  0  0  0  0  0  0  0999 V2000
   24.8540    9.4020    7.6050 C   0  0  0  0  0  0  0  0  0  0  0  0
   25.5230   10.7550    7.4270 C   0  0  0  0  0  0  0  0  0  0  0  0
   25.0080   11.4830    6.2360 C   0  0  0  0  0  0  0  0  0  0  0  0
   25.2610   12.7800    5.8330 C   0  0  0  0  0  0  0  0  0  0  0  0
   24.5140   12.9270    4.6990 N   0  0  0  0  0  0  0  0  0  0  0  0
   24.5680   14.2430    3.6640 S   0  0  0  0  0  6  0  0  0  0  0  0
   24.6770   13.6700    2.3360 O   0  0  0  0  0  0  0  0  0  0  0  0
   23.4990   15.1490    4.0290 O   0  0  0  0  0  0  0  0  0  0  0  0
   26.0290   15.1620    3.8670 C   0  0  0  0  0  0  0  0  0  0  0  0
   27.1080   15.1080    2.9260 C   0  0  0  0  0  0  0  0  0  0  0  0
   28.1390   15.9500    3.2670 C   0  0  0  0  0  0  0  0  0  0  0  0
   27.8090   16.8080    4.7030 S   0  0  0  0  0  0  0  0  0  0  0  0
   26.2730   16.0570    4.8980 C   0  0  0  0  0  0  0  0  0  0  0  0
   25.4260   16.3670    6.0480 C   0  0  0  0  0  0  0  0  0  0  0  0
   24.3580   16.9470    5.8960 O   0  0  0  0  0  0  0  0  0  0  0  0
   25.9230   15.9440    7.2680 N   0  0  0  0  0  0  0  0  0  0  0  0
   25.3480   16.0950    8.5470 C   0  0  0  0  0  0  0  0  0  0  0  0
   24.0870   15.5790    8.9100 C   0  0  0  0  0  0  0  0  0  0  0  0
   23.5610   15.7660   10.1980 C   0  0  0  0  0  0  0  0  0  0  0  0
   24.3140   16.4680   11.1180 C   0  0  0  0  0  0  0  0  0  0  0  0
   25.5580   16.9700   10.7550 C   0  0  0  0  0  0  0  0  0  0  0  0
   26.0960   16.8070    9.4910 C   0  0  0  0  0  0  0  0  0  0  0  0
   26.1260   17.6640   11.9140 C   0  0  0  0  0  0  0  0  0  0  0  0
   27.1750   18.2800   11.8990 O   0  0  0  0  0  0  0  0  0  0  0  0
   25.2390   17.4840   12.9640 N   0  0  0  0  0  0  0  0  0  0  0  0
   25.3110   18.1990   14.2340 C   0  0  1  0  0  0  0  0  0  0  0  0
   26.3310   17.6160   15.2110 C   0  0  0  0  0  0  0  0  0  0  0  0
   26.2790   18.3940   16.5160 C   0  0  0  0  0  0  0  0  0  0  0  0
   26.5240   19.8680   16.2850 C   0  0  0  0  0  0  0  0  0  0  0  0
   26.9450   20.6070   17.1700 O   0  0  0  0  0  0  0  0  0  0  0  0
   26.1730   20.3650   15.0560 N   0  0  0  0  0  0  0  0  0  0  0  0
   25.5720   19.6970   14.0120 C   0  0  0  0  0  0  0  0  0  0  0  0
   25.1870   20.3150   13.0210 O   0  0  0  0  0  0  0  0  0  0  0  0
   24.0080   16.8350   12.5300 C   0  0  0  0  0  0  0  0  0  0  0  0
   23.9070   11.7490    4.4070 C   0  0  0  0  0  0  0  0  0  0  0  0
   24.1700   10.8520    5.3370 N   0  0  0  0  0  0  0  0  0  0  0  0
   24.7464    9.1845    8.6779 H   0  0  0  0  0  0  0  0  0  0  0  0
   23.8606    9.4192    7.1330 H   0  0  0  0  0  0  0  0  0  0  0  0
   25.4708    8.6230    7.1330 H   0  0  0  0  0  0  0  0  0  0  0  0
   25.3349   11.3641    8.3234 H   0  0  0  0  0  0  0  0  0  0  0  0
   26.5994   10.5832    7.2790 H   0  0  0  0  0  0  0  0  0  0  0  0
   25.9137   13.5231    6.3145 H   0  0  0  0  0  0  0  0  0  0  0  0
   27.1108   14.4660    2.0328 H   0  0  0  0  0  0  0  0  0  0  0  0
   29.0655   16.0575    2.6839 H   0  0  0  0  0  0  0  0  0  0  0  0
   26.8296   15.4560    7.2384 H   0  0  0  0  0  0  0  0  0  0  0  0
   23.5021   15.0171    8.1670 H   0  0  0  0  0  0  0  0  0  0  0  0
   22.5735   15.3633   10.4676 H   0  0  0  0  0  0  0  0  0  0  0  0
   27.0813   17.2242    9.2360 H   0  0  0  0  0  0  0  0  0  0  0  0
   24.3248   18.0697   14.7038 H   0  0  0  0  0  0  0  0  0  0  0  0
   26.0931   16.5594   15.4035 H   0  0  0  0  0  0  0  0  0  0  0  0
   27.3396   17.6898   14.7781 H   0  0  0  0  0  0  0  0  0  0  0  0
   25.2869   18.2626   16.9726 H   0  0  0  0  0  0  0  0  0  0  0  0
   27.0666   18.0105   17.1813 H   0  0  0  0  0  0  0  0  0  0  0  0
   26.3848   21.3598   14.8937 H   0  0  0  0  0  0  0  0  0  0  0  0
   23.7955   15.9415   13.1354 H   0  0  0  0  0  0  0  0  0  0  0  0
   23.1175   17.4725   12.6331 H   0  0  0  0  0  0  0  0  0  0  0  0
   23.2832   11.5678    3.5193 H   0  0  0  0  0  0  0  0  0  0  0  0
  1  2  1  0
  2  3  1  0
  3  4  2  0
  4  5  1  0
  5  6  1  0
  6  7  2  0
  6  8  2  0
  6  9  1  0
  9 10  1  0
 10 11  2  0
 11 12  1  0
 12 13  1  0
 13 14  1  0
 14 15  2  0
 14 16  1  0
 16 17  1  0
 17 18  2  0
 18 19  1  0
 19 20  2  0
 20 21  1  0
 21 22  2  0
 21 23  1  0
 23 24  2  0
 23 25  1  0
 25 26  1  0
 26 27  1  0
 27 28  1  0
 28 29  1  0
 29 30  2  0
 29 31  1  0
 31 32  1  0
 32 33  2  0
 25 34  1  0
  5 35  1  0
 35 36  2  0
 36  3  1  0
 13  9  2  0
 22 17  1  0
 32 26  1  0
 34 20  1  0
  1 37  1  0
  1 38  1  0
  1 39  1  0
  2 40  1  0
  2 41  1  0
  4 42  1  0
 10 43  1  0
 11 44  1  0
 16 45  1  0
 18 46  1  0
 19 47  1  0
 22 48  1  0
 26 49  1  1
 27 50  1  0
 27 51  1  0
 28 52  1  0
 28 53  1  0
 31 54  1  0
 34 55  1  0
 34 56  1  0
 35 57  1  0
M  END
>  <meeko>  (392) 
{"is_sidechain": [true], "free_energy": -12.75, "intermolecular_energy": 0.0, "internal_energy": -12.75, "cluster_size": 17, "cluster_id": 1, "rank_in_cluster": 1}

>  <_RMSD_MCS_to_ref>  (392) 
0.6229993980735447

$$$$
ligand
     RDKit          3D

 60 65  0  0  0  0  0  0  0  0999 V2000
   24.8540    9.4020    7.6050 C   0  0  0  0  0  0  0  0  0  0  0  0
   25.5230   10.7550    7.4270 C   0  0  0  0  0  0  0  0  0  0  0  0
   25.3520   11.2910    6.0490 C   0  0  0  0  0  0  0  0  0  0  0  0
   25.9750   12.3690    5.4520 C   0  0  0  0  0  0  0  0  0  0  0  0
   25.4230   12.4260    4.2040 N   0  0  0  0  0  0  0  0  0  0  0  0
   25.9730   13.3810    2.9260 S   0  0  0  0  0  6  0  0  0  0  0  0
   24.7870   13.6360    2.1300 O   0  0  0  0  0  0  0  0  0  0  0  0
   27.1090   12.6520    2.3940 O   0  0  0  0  0  0  0  0  0  0  0  0
   26.4700   14.7810    3.6100 O   0  0  0  0  0  0  0  0  0  0  0  0
   26.1630   15.0290    4.9330 C   0  0  0  0  0  0  0  0  0  0  0  0
   24.8320   15.3580    5.2130 C   0  0  0  0  0  0  0  0  0  0  0  0
   24.4270   15.6380    6.5200 C   0  0  0  0  0  0  0  0  0  0  0  0
   25.3300   15.6190    7.6030 C   0  0  0  0  0  0  0  0  0  0  0  0
   24.9160   15.9100    8.9820 C   0  0  0  0  0  0  0  0  0  0  0  0
   23.6760   15.4420    9.4880 C   0  0  0  0  0  0  0  0  0  0  0  0
   23.2490   15.7160   10.7950 C   0  0  0  0  0  0  0  0  0  0  0  0
   24.0780   16.4660   11.6050 C   0  0  0  0  0  0  0  0  0  0  0  0
   25.2960   16.9280   11.1160 C   0  0  0  0  0  0  0  0  0  0  0  0
   25.7360   16.6750    9.8300 C   0  0  0  0  0  0  0  0  0  0  0  0
   25.9540   17.6930   12.1810 C   0  0  0  0  0  0  0  0  0  0  0  0
   26.9960   18.3020   12.0500 O   0  0  0  0  0  0  0  0  0  0  0  0
   25.1490   17.5880   13.3060 N   0  0  0  0  0  0  0  0  0  0  0  0
   25.3230   18.3820   14.5170 C   0  0  1  0  0  0  0  0  0  0  0  0
   26.4000   17.8430   15.4580 C   0  0  0  0  0  0  0  0  0  0  0  0
   26.4550   18.7050   16.7090 C   0  0  0  0  0  0  0  0  0  0  0  0
   26.7030   20.1550   16.3650 C   0  0  0  0  0  0  0  0  0  0  0  0
   27.1900   20.9440   17.1700 O   0  0  0  0  0  0  0  0  0  0  0  0
   26.2790   20.5770   15.1300 N   0  0  0  0  0  0  0  0  0  0  0  0
   25.5880   19.8580   14.1820 C   0  0  0  0  0  0  0  0  0  0  0  0
   25.1330   20.4210   13.1860 O   0  0  0  0  0  0  0  0  0  0  0  0
   23.8860   16.9260   13.0100 C   0  0  0  0  0  0  0  0  0  0  0  0
   26.6620   15.3160    7.2660 C   0  0  0  0  0  0  0  0  0  0  0  0
   27.7140   15.2720    8.1380 O   0  0  0  0  0  0  0  0  0  0  0  0
   28.8250   14.9740    7.4220 C   0  0  0  0  0  0  0  0  0  0  0  0
   28.5140   14.8230    6.0920 C   0  0  0  0  0  0  0  0  0  0  0  0
   27.1100   15.0300    5.9750 C   0  0  0  0  0  0  0  0  0  0  0  0
   24.5750   11.3770    4.0460 C   0  0  0  0  0  0  0  0  0  0  0  0
   24.4890   10.6810    5.1590 N   0  0  0  0  0  0  0  0  0  0  0  0
   24.7464    9.1845    8.6779 H   0  0  0  0  0  0  0  0  0  0  0  0
   23.8606    9.4192    7.1330 H   0  0  0  0  0  0  0  0  0  0  0  0
   25.4708    8.6230    7.1330 H   0  0  0  0  0  0  0  0  0  0  0  0
   25.0804   11.4654    8.1407 H   0  0  0  0  0  0  0  0  0  0  0  0
   26.6003   10.6248    7.6069 H   0  0  0  0  0  0  0  0  0  0  0  0
   26.7408   13.0306    5.8830 H   0  0  0  0  0  0  0  0  0  0  0  0
   24.0972   15.3965    4.3953 H   0  0  0  0  0  0  0  0  0  0  0  0
   23.3712   15.8808    6.7105 H   0  0  0  0  0  0  0  0  0  0  0  0
   23.0270   14.8433    8.8320 H   0  0  0  0  0  0  0  0  0  0  0  0
   22.2818   15.3443   11.1642 H   0  0  0  0  0  0  0  0  0  0  0  0
   26.7037   17.0626    9.4789 H   0  0  0  0  0  0  0  0  0  0  0  0
   24.3702   18.3021   15.0609 H   0  0  0  0  0  0  0  0  0  0  0  0
   26.1586   16.8067   15.7367 H   0  0  0  0  0  0  0  0  0  0  0  0
   27.3762   17.8677   14.9516 H   0  0  0  0  0  0  0  0  0  0  0  0
   25.4973   18.6222   17.2438 H   0  0  0  0  0  0  0  0  0  0  0  0
   27.2841   18.3506   17.3391 H   0  0  0  0  0  0  0  0  0  0  0  0
   26.5057   21.5508   14.8825 H   0  0  0  0  0  0  0  0  0  0  0  0
   23.7162   16.0751   13.6862 H   0  0  0  0  0  0  0  0  0  0  0  0
   23.0103   17.5789   13.1395 H   0  0  0  0  0  0  0  0  0  0  0  0
   29.8345   14.8678    7.8459 H   0  0  0  0  0  0  0  0  0  0  0  0
   29.2136   14.5879    5.2763 H   0  0  0  0  0  0  0  0  0  0  0  0
   24.0352   11.1421    3.1168 H   0  0  0  0  0  0  0  0  0  0  0  0
  1  2  1  0
  2  3  1  0
  3  4  2  0
  4  5  1  0
  5  6  1  0
  6  7  2  0
  6  8  2  0
  6  9  1  0
  9 10  1  0
 10 11  2  0
 11 12  1  0
 12 13  2  0
 13 14  1  0
 14 15  2  0
 15 16  1  0
 16 17  2  0
 17 18  1  0
 18 19  2  0
 18 20  1  0
 20 21  2  0
 20 22  1  0
 22 23  1  0
 23 24  1  0
 24 25  1  0
 25 26  1  0
 26 27  2  0
 26 28  1  0
 28 29  1  0
 29 30  2  0
 22 31  1  0
 13 32  1  0
 32 33  1  0
 33 34  1  0
 34 35  2  0
 35 36  1  0
  5 37  1  0
 37 38  2  0
 38  3  1  0
 36 10  1  0
 19 14  1  0
 29 23  1  0
 36 32  2  0
 31 17  1  0
  1 39  1  0
  1 40  1  0
  1 41  1  0
  2 42  1  0
  2 43  1  0
  4 44  1  0
 11 45  1  0
 12 46  1  0
 15 47  1  0
 16 48  1  0
 19 49  1  0
 23 50  1  1
 24 51  1  0
 24 52  1  0
 25 53  1  0
 25 54  1  0
 28 55  1  0
 31 56  1  0
 31 57  1  0
 34 58  1  0
 35 59  1  0
 37 60  1  0
M  END
>  <meeko>  (393) 
{"is_sidechain": [true], "free_energy": -12.75, "intermolecular_energy": 0.0, "internal_energy": -12.75, "cluster_size": 19, "cluster_id": 1, "rank_in_cluster": 1}

>  <_RMSD_MCS_to_ref>  (393) 
0.5019731068493599

$$$$
ligand
     RDKit          3D

 57 61  0  0  0  0  0  0  0  0999 V2000
   24.8710    9.6160    7.7820 C   0  0  0  0  0  0  0  0  0  0  0  0
   25.4240   10.9650    7.3490 C   0  0  0  0  0  0  0  0  0  0  0  0
   26.9120   10.9950    7.3710 C   0  0  0  0  0  0  0  0  0  0  0  0
   27.7560   11.8720    8.0240 C   0  0  0  0  0  0  0  0  0  0  0  0
   29.0080   11.4170    7.7230 N   0  0  0  0  0  0  0  0  0  0  0  0
   30.4490   12.1710    8.1140 S   0  0  0  0  0  6  0  0  0  0  0  0
   31.5170   11.3170    7.6160 O   0  0  0  0  0  0  0  0  0  0  0  0
   30.3180   13.5590    7.7150 O   0  0  0  0  0  0  0  0  0  0  0  0
   30.6260   12.1770    9.8410 C   0  0  0  0  0  0  0  0  0  0  0  0
   31.7620   11.8090   10.4630 N   0  0  0  0  0  0  0  0  0  0  0  0
   31.4600   11.9320   11.7680 N   0  0  0  0  0  0  0  0  0  0  0  0
   30.1960   12.3920   11.9910 C   0  0  0  0  0  0  0  0  0  0  0  0
   29.6150   12.5770   10.7600 C   0  0  0  0  0  0  0  0  0  0  0  0
   28.3390   13.0440   10.4750 N   0  0  0  0  0  0  0  0  0  0  0  0
   28.0260   14.3340   10.0940 C   0  0  0  0  0  0  0  0  0  0  0  0
   28.8230   15.2480    9.9140 O   0  0  0  0  0  0  0  0  0  0  0  0
   26.5800   14.5910    9.8490 C   0  0  0  0  0  0  0  0  0  0  0  0
   25.8890   14.0200    8.7620 C   0  0  0  0  0  0  0  0  0  0  0  0
   24.5250   14.2970    8.5430 C   0  0  0  0  0  0  0  0  0  0  0  0
   23.8260   15.1420    9.4040 C   0  0  0  0  0  0  0  0  0  0  0  0
   24.5190   15.6730   10.4760 C   0  0  0  0  0  0  0  0  0  0  0  0
   25.8670   15.4090   10.7170 C   0  0  0  0  0  0  0  0  0  0  0  0
   26.3160   16.1380   11.9400 C   0  0  0  0  0  0  0  0  0  0  0  0
   25.0900   16.7890   12.3910 N   0  0  0  0  0  0  0  0  0  0  0  0
   25.0680   17.8410   13.4000 C   0  0  1  0  0  0  0  0  0  0  0  0
   25.6360   17.3810   14.7390 C   0  0  0  0  0  0  0  0  0  0  0  0
   25.5030   18.5030   15.7570 C   0  0  0  0  0  0  0  0  0  0  0  0
   26.1710   19.7660   15.2670 C   0  0  0  0  0  0  0  0  0  0  0  0
   26.7410   20.5450   16.0250 O   0  0  0  0  0  0  0  0  0  0  0  0
   26.0890   20.0220   13.9220 N   0  0  0  0  0  0  0  0  0  0  0  0
   25.8300   19.0960   12.9370 C   0  0  0  0  0  0  0  0  0  0  0  0
   26.2000   19.2980   11.7830 O   0  0  0  0  0  0  0  0  0  0  0  0
   24.0360   16.5890   11.5150 C   0  0  0  0  0  0  0  0  0  0  0  0
   22.9200   17.0660   11.5600 O   0  0  0  0  0  0  0  0  0  0  0  0
   28.9080   10.3640    6.8740 C   0  0  0  0  0  0  0  0  0  0  0  0
   27.6430   10.0640    6.6590 N   0  0  0  0  0  0  0  0  0  0  0  0
   24.8497    9.5640    8.8806 H   0  0  0  0  0  0  0  0  0  0  0  0
   23.8507    9.4948    7.3893 H   0  0  0  0  0  0  0  0  0  0  0  0
   25.5127    8.8135    7.3893 H   0  0  0  0  0  0  0  0  0  0  0  0
   25.0803   11.1770    6.3258 H   0  0  0  0  0  0  0  0  0  0  0  0
   25.0600   11.7230    8.0582 H   0  0  0  0  0  0  0  0  0  0  0  0
   27.4824   12.7383    8.6443 H   0  0  0  0  0  0  0  0  0  0  0  0
   32.1193   11.7012   12.5250 H   0  0  0  0  0  0  0  0  0  0  0  0
   29.7303   12.5792   12.9698 H   0  0  0  0  0  0  0  0  0  0  0  0
   27.5616   12.3730   10.5543 H   0  0  0  0  0  0  0  0  0  0  0  0
   26.4225   13.3478    8.0739 H   0  0  0  0  0  0  0  0  0  0  0  0
   24.0072   13.8427    7.6854 H   0  0  0  0  0  0  0  0  0  0  0  0
   22.7645   15.3770    9.2369 H   0  0  0  0  0  0  0  0  0  0  0  0
   26.6980   15.4406   12.7001 H   0  0  0  0  0  0  0  0  0  0  0  0
   27.1409   16.8410   11.7520 H   0  0  0  0  0  0  0  0  0  0  0  0
   24.0059   18.0913   13.5386 H   0  0  0  0  0  0  0  0  0  0  0  0
   25.0798   16.4993   15.0900 H   0  0  0  0  0  0  0  0  0  0  0  0
   26.6975   17.1196   14.6172 H   0  0  0  0  0  0  0  0  0  0  0  0
   24.4358   18.7055   15.9306 H   0  0  0  0  0  0  0  0  0  0  0  0
   25.9943   18.1879   16.6894 H   0  0  0  0  0  0  0  0  0  0  0  0
   26.2346   20.9964   13.6215 H   0  0  0  0  0  0  0  0  0  0  0  0
   29.7628    9.8348    6.4276 H   0  0  0  0  0  0  0  0  0  0  0  0
  1  2  1  0
  2  3  1  0
  3  4  2  0
  4  5  1  0
  5  6  1  0
  6  7  2  0
  6  8  2  0
  6  9  1  0
  9 10  2  0
 10 11  1  0
 11 12  1  0
 12 13  2  0
 13 14  1  0
 14 15  1  0
 15 16  2  0
 15 17  1  0
 17 18  2  0
 18 19  1  0
 19 20  2  0
 20 21  1  0
 21 22  2  0
 22 23  1  0
 23 24  1  0
 24 25  1  0
 25 26  1  0
 26 27  1  0
 27 28  1  0
 28 29  2  0
 28 30  1  0
 30 31  1  0
 31 32  2  0
 24 33  1  0
 33 34  2  0
  5 35  1  0
 35 36  2  0
 36  3  1  0
 13  9  1  0
 22 17  1  0
 31 25  1  0
 33 21  1  0
  1 37  1  0
  1 38  1  0
  1 39  1  0
  2 40  1  0
  2 41  1  0
  4 42  1  0
 11 43  1  0
 12 44  1  0
 14 45  1  0
 18 46  1  0
 19 47  1  0
 20 48  1  0
 23 49  1  0
 23 50  1  0
 25 51  1  1
 26 52  1  0
 26 53  1  0
 27 54  1  0
 27 55  1  0
 30 56  1  0
 35 57  1  0
M  END
>  <meeko>  (394) 
{"is_sidechain": [true], "free_energy": -12.75, "intermolecular_energy": 0.0, "internal_energy": -12.75, "cluster_size": 15, "cluster_id": 1, "rank_in_cluster": 1}

>  <_RMSD_MCS_to_ref>  (394) 
1.5766531711895997

$$$$
ligand
     RDKit          3D

 62 66  0  0  0  0  0  0  0  0999 V2000
   24.8710    9.6160    7.7820 C   0  0  0  0  0  0  0  0  0  0  0  0
   25.4240   10.9650    7.3490 C   0  0  0  0  0  0  0  0  0  0  0  0
   26.9100   10.9610    7.2510 C   0  0  0  0  0  0  0  0  0  0  0  0
   27.7270   11.7000    6.4180 C   0  0  0  0  0  0  0  0  0  0  0  0
   28.9910   11.2810    6.7220 N   0  0  0  0  0  0  0  0  0  0  0  0
   30.4280   12.0440    6.2700 S   0  0  0  0  0  6  0  0  0  0  0  0
   31.4020   10.9710    6.2140 O   0  0  0  0  0  0  0  0  0  0  0  0
   30.0900   12.8100    5.0840 O   0  0  0  0  0  0  0  0  0  0  0  0
   30.8300   13.0370    7.5090 O   0  0  0  0  0  0  0  0  0  0  0  0
   31.2400   12.5020    8.7020 C   0  0  0  0  0  0  0  0  0  0  0  0
   31.8580   11.2490    8.7140 C   0  0  0  0  0  0  0  0  0  0  0  0
   32.3200   10.7170    9.9150 C   0  0  0  0  0  0  0  0  0  0  0  0
   32.1880   11.4440   11.0970 C   0  0  0  0  0  0  0  0  0  0  0  0
   31.6030   12.7120   11.0780 C   0  0  0  0  0  0  0  0  0  0  0  0
   31.1260   13.2630    9.8780 C   0  0  0  0  0  0  0  0  0  0  0  0
   30.5570   14.6670    9.8730 C   0  0  0  0  0  0  0  0  0  0  0  0
   29.1200   14.6470    9.5650 C   0  0  0  0  0  0  0  0  0  0  0  0
   27.9420   14.5000    9.3850 C   0  0  0  0  0  0  0  0  0  0  0  0
   26.5170   14.5000    9.3030 C   0  0  0  0  0  0  0  0  0  0  0  0
   25.8290   13.8200    8.2940 C   0  0  0  0  0  0  0  0  0  0  0  0
   24.4240   13.8970    8.2060 C   0  0  0  0  0  0  0  0  0  0  0  0
   23.6920   14.6630    9.1180 C   0  0  0  0  0  0  0  0  0  0  0  0
   24.3970   15.3190   10.1090 C   0  0  0  0  0  0  0  0  0  0  0  0
   25.7820   15.2360   10.2170 C   0  0  0  0  0  0  0  0  0  0  0  0
   26.2570   16.0510   11.3690 C   0  0  0  0  0  0  0  0  0  0  0  0
   25.0190   16.5930   11.9140 N   0  0  0  0  0  0  0  0  0  0  0  0
   24.9950   17.6880   12.8820 C   0  0  1  0  0  0  0  0  0  0  0  0
   25.3910   17.2030   14.2740 C   0  0  0  0  0  0  0  0  0  0  0  0
   25.3640   18.3700   15.2450 C   0  0  0  0  0  0  0  0  0  0  0  0
   26.3080   19.4530   14.7830 C   0  0  0  0  0  0  0  0  0  0  0  0
   27.0410   20.0520   15.5630 O   0  0  0  0  0  0  0  0  0  0  0  0
   26.2990   19.7230   13.4370 N   0  0  0  0  0  0  0  0  0  0  0  0
   25.9150   18.8470   12.4460 C   0  0  0  0  0  0  0  0  0  0  0  0
   26.3120   18.9990   11.2920 O   0  0  0  0  0  0  0  0  0  0  0  0
   23.9140   16.2230   11.1620 C   0  0  0  0  0  0  0  0  0  0  0  0
   22.7570   16.5670   11.3110 O   0  0  0  0  0  0  0  0  0  0  0  0
   28.9240   10.3640    7.7230 C   0  0  0  0  0  0  0  0  0  0  0  0
   27.6710   10.1650    8.0870 N   0  0  0  0  0  0  0  0  0  0  0  0
   24.8497    9.5640    8.8806 H   0  0  0  0  0  0  0  0  0  0  0  0
   23.8507    9.4948    7.3893 H   0  0  0  0  0  0  0  0  0  0  0  0
   25.5127    8.8135    7.3893 H   0  0  0  0  0  0  0  0  0  0  0  0
   25.0051   11.2195    6.3642 H   0  0  0  0  0  0  0  0  0  0  0  0
   25.1387   11.7060    8.1103 H   0  0  0  0  0  0  0  0  0  0  0  0
   27.4273   12.4556    5.6769 H   0  0  0  0  0  0  0  0  0  0  0  0
   31.9792   10.6846    7.7777 H   0  0  0  0  0  0  0  0  0  0  0  0
   32.7895    9.7223    9.9310 H   0  0  0  0  0  0  0  0  0  0  0  0
   32.5452   11.0183   12.0463 H   0  0  0  0  0  0  0  0  0  0  0  0
   31.5150   13.2849   12.0129 H   0  0  0  0  0  0  0  0  0  0  0  0
   30.7071   15.1204   10.8639 H   0  0  0  0  0  0  0  0  0  0  0  0
   31.0749   15.2544    9.1005 H   0  0  0  0  0  0  0  0  0  0  0  0
   26.3888   13.2194    7.5620 H   0  0  0  0  0  0  0  0  0  0  0  0
   23.8979   13.3483    7.4109 H   0  0  0  0  0  0  0  0  0  0  0  0
   22.5969   14.7405    9.0494 H   0  0  0  0  0  0  0  0  0  0  0  0
   26.7754   15.4249   12.1101 H   0  0  0  0  0  0  0  0  0  0  0  0
   26.9832   16.8264   11.0836 H   0  0  0  0  0  0  0  0  0  0  0  0
   23.9613   18.0620   12.9210 H   0  0  0  0  0  0  0  0  0  0  0  0
   24.6819   16.4315   14.6086 H   0  0  0  0  0  0  0  0  0  0  0  0
   26.4055   16.7793   14.2391 H   0  0  0  0  0  0  0  0  0  0  0  0
   24.3429   18.7758   15.2974 H   0  0  0  0  0  0  0  0  0  0  0  0
   25.6792   18.0183   16.2384 H   0  0  0  0  0  0  0  0  0  0  0  0
   26.6058   20.6613   13.1430 H   0  0  0  0  0  0  0  0  0  0  0  0
   29.7934    9.8579    8.1680 H   0  0  0  0  0  0  0  0  0  0  0  0
  1  2  1  0
  2  3  1  0
  3  4  2  0
  4  5  1  0
  5  6  1  0
  6  7  2  0
  6  8  2  0
  6  9  1  0
  9 10  1  0
 10 11  2  0
 11 12  1  0
 12 13  2  0
 13 14  1  0
 14 15  2  0
 15 16  1  0
 16 17  1  0
 17 18  3  0
 18 19  1  0
 19 20  2  0
 20 21  1  0
 21 22  2  0
 22 23  1  0
 23 24  2  0
 24 25  1  0
 25 26  1  0
 26 27  1  0
 27 28  1  0
 28 29  1  0
 29 30  1  0
 30 31  2  0
 30 32  1  0
 32 33  1  0
 33 34  2  0
 26 35  1  0
 35 36  2  0
  5 37  1  0
 37 38  2  0
 38  3  1  0
 15 10  1  0
 24 19  1  0
 33 27  1  0
 35 23  1  0
  1 39  1  0
  1 40  1  0
  1 41  1  0
  2 42  1  0
  2 43  1  0
  4 44  1  0
 11 45  1  0
 12 46  1  0
 13 47  1  0
 14 48  1  0
 16 49  1  0
 16 50  1  0
 20 51  1  0
 21 52  1  0
 22 53  1  0
 25 54  1  0
 25 55  1  0
 27 56  1  1
 28 57  1  0
 28 58  1  0
 29 59  1  0
 29 60  1  0
 32 61  1  0
 37 62  1  0
M  END
>  <meeko>  (395) 
{"is_sidechain": [true], "free_energy": -12.75, "intermolecular_energy": 0.0, "internal_energy": -12.75, "cluster_size": 16, "cluster_id": 1, "rank_in_cluster": 1}

>  <_RMSD_MCS_to_ref>  (395) 
1.961662432734032

$$$$
ligand
     RDKit          3D

 62 67  0  0  0  0  0  0  0  0999 V2000
   24.8710    9.6160    7.7820 C   0  0  0  0  0  0  0  0  0  0  0  0
   25.4240   10.9650    7.3490 C   0  0  0  0  0  0  0  0  0  0  0  0
   26.4360   10.8350    6.2660 C   0  0  0  0  0  0  0  0  0  0  0  0
   27.8100   10.7210    6.3680 C   0  0  0  0  0  0  0  0  0  0  0  0
   28.2320   10.5960    5.0750 N   0  0  0  0  0  0  0  0  0  0  0  0
   29.8330   10.6620    4.5510 S   0  0  0  0  0  6  0  0  0  0  0  0
   29.8250   10.0040    3.2580 O   0  0  0  0  0  0  0  0  0  0  0  0
   30.6060   10.1400    5.6640 O   0  0  0  0  0  0  0  0  0  0  0  0
   30.1730   12.2420    4.3530 O   0  0  0  0  0  0  0  0  0  0  0  0
   29.2720   13.2350    4.6350 C   0  0  0  0  0  0  0  0  0  0  0  0
   28.8940   14.0170    3.5450 C   0  0  0  0  0  0  0  0  0  0  0  0
   27.9780   15.0620    3.7100 C   0  0  0  0  0  0  0  0  0  0  0  0
   27.4240   15.3530    4.9460 C   0  0  0  0  0  0  0  0  0  0  0  0
   26.5490   16.3650    5.0550 N   0  0  0  0  0  0  0  0  0  0  0  0
   26.0290   16.6240    6.2790 C   0  0  0  0  0  0  0  0  0  0  0  0
   26.3260   15.9140    7.4400 C   0  0  0  0  0  0  0  0  0  0  0  0
   25.7160   16.2450    8.7350 C   0  0  0  0  0  0  0  0  0  0  0  0
   24.4360   15.7390    9.0780 C   0  0  0  0  0  0  0  0  0  0  0  0
   23.8330   16.0380   10.3040 C   0  0  0  0  0  0  0  0  0  0  0  0
   24.5310   16.8530   11.1700 C   0  0  0  0  0  0  0  0  0  0  0  0
   25.7880   17.3690   10.8680 C   0  0  0  0  0  0  0  0  0  0  0  0
   26.3930   17.0720    9.6560 C   0  0  0  0  0  0  0  0  0  0  0  0
   26.2880   18.1960   12.0060 C   0  0  0  0  0  0  0  0  0  0  0  0
   25.1630   18.1730   12.9330 N   0  0  0  0  0  0  0  0  0  0  0  0
   25.2500   18.6330   14.3140 C   0  0  2  0  0  0  0  0  0  0  0  0
   26.3470   19.6740   14.5140 C   0  0  0  0  0  0  0  0  0  0  0  0
   26.3160   20.1700   15.9520 C   0  0  0  0  0  0  0  0  0  0  0  0
   26.4390   19.0230   16.9280 C   0  0  0  0  0  0  0  0  0  0  0  0
   27.0520   19.1230   17.9860 O   0  0  0  0  0  0  0  0  0  0  0  0
   25.8110   17.8530   16.5810 N   0  0  0  0  0  0  0  0  0  0  0  0
   25.4740   17.4750   15.3020 C   0  0  0  0  0  0  0  0  0  0  0  0
   25.3810   16.2850   15.0110 O   0  0  0  0  0  0  0  0  0  0  0  0
   24.1510   17.3260   12.5060 C   0  0  0  0  0  0  0  0  0  0  0  0
   23.1340   17.0150   13.0960 O   0  0  0  0  0  0  0  0  0  0  0  0
   27.2390   14.8640    7.2990 C   0  0  0  0  0  0  0  0  0  0  0  0
   27.8060   14.5640    6.0500 C   0  0  0  0  0  0  0  0  0  0  0  0
   28.7280   13.5090    5.8880 C   0  0  0  0  0  0  0  0  0  0  0  0
   27.1650   10.7170    4.2450 C   0  0  0  0  0  0  0  0  0  0  0  0
   26.0530   10.8380    4.9390 N   0  0  0  0  0  0  0  0  0  0  0  0
   24.8497    9.5640    8.8806 H   0  0  0  0  0  0  0  0  0  0  0  0
   23.8507    9.4948    7.3893 H   0  0  0  0  0  0  0  0  0  0  0  0
   25.5127    8.8135    7.3893 H   0  0  0  0  0  0  0  0  0  0  0  0
   24.5937   11.5882    6.9853 H   0  0  0  0  0  0  0  0  0  0  0  0
   25.9168   11.4235    8.2190 H   0  0  0  0  0  0  0  0  0  0  0  0
   28.4230   10.7291    7.2813 H   0  0  0  0  0  0  0  0  0  0  0  0
   29.3175   13.8119    2.5507 H   0  0  0  0  0  0  0  0  0  0  0  0
   27.6909   15.6669    2.8373 H   0  0  0  0  0  0  0  0  0  0  0  0
   25.3178   17.4590    6.3623 H   0  0  0  0  0  0  0  0  0  0  0  0
   23.9043   15.0953    8.3618 H   0  0  0  0  0  0  0  0  0  0  0  0
   22.8421   15.6392   10.5668 H   0  0  0  0  0  0  0  0  0  0  0  0
   27.3876   17.4759    9.4159 H   0  0  0  0  0  0  0  0  0  0  0  0
   27.1849   17.7480   12.4586 H   0  0  0  0  0  0  0  0  0  0  0  0
   26.5906   19.2112   11.7097 H   0  0  0  0  0  0  0  0  0  0  0  0
   24.2763   19.0995   14.5242 H   0  0  0  0  0  0  0  0  0  0  0  0
   27.3266   19.2202   14.3032 H   0  0  0  0  0  0  0  0  0  0  0  0
   26.1810   20.5192   13.8299 H   0  0  0  0  0  0  0  0  0  0  0  0
   27.1527   20.8665   16.1095 H   0  0  0  0  0  0  0  0  0  0  0  0
   25.3539   20.6741   16.1261 H   0  0  0  0  0  0  0  0  0  0  0  0
   25.5717   17.2027   17.3431 H   0  0  0  0  0  0  0  0  0  0  0  0
   27.5167   14.2649    8.1787 H   0  0  0  0  0  0  0  0  0  0  0  0
   29.0192   12.8991    6.7559 H   0  0  0  0  0  0  0  0  0  0  0  0
   27.2215   10.7143    3.1465 H   0  0  0  0  0  0  0  0  0  0  0  0
  1  2  1  0
  2  3  1  0
  3  4  2  0
  4  5  1  0
  5  6  1  0
  6  7  2  0
  6  8  2  0
  6  9  1  0
  9 10  1  0
 10 11  2  0
 11 12  1  0
 12 13  2  0
 13 14  1  0
 14 15  2  0
 15 16  1  0
 16 17  1  0
 17 18  2  0
 18 19  1  0
 19 20  2  0
 20 21  1  0
 21 22  2  0
 21 23  1  0
 23 24  1  0
 24 25  1  0
 25 26  1  0
 26 27  1  0
 27 28  1  0
 28 29  2  0
 28 30  1  0
 30 31  1  0
 31 32  2  0
 24 33  1  0
 33 34  2  0
 16 35  2  0
 35 36  1  0
 36 37  2  0
  5 38  1  0
 38 39  2  0
 39  3  1  0
 37 10  1  0
 36 13  1  0
 22 17  1  0
 31 25  1  0
 33 20  1  0
  1 40  1  0
  1 41  1  0
  1 42  1  0
  2 43  1  0
  2 44  1  0
  4 45  1  0
 11 46  1  0
 12 47  1  0
 15 48  1  0
 18 49  1  0
 19 50  1  0
 22 51  1  0
 23 52  1  0
 23 53  1  0
 25 54  1  1
 26 55  1  0
 26 56  1  0
 27 57  1  0
 27 58  1  0
 30 59  1  0
 35 60  1  0
 37 61  1  0
 38 62  1  0
M  END
>  <meeko>  (396) 
{"is_sidechain": [true], "free_energy": -12.75, "intermolecular_energy": 0.0, "internal_energy": -12.75, "cluster_size": 17, "cluster_id": 1, "rank_in_cluster": 1}

>  <_RMSD_MCS_to_ref>  (396) 
1.6931678811282154

$$$$
ligand
     RDKit          3D

 55 59  0  0  0  0  0  0  0  0999 V2000
   24.8540    9.4020    7.6050 C   0  0  0  0  0  0  0  0  0  0  0  0
   25.5230   10.7550    7.4270 C   0  0  0  0  0  0  0  0  0  0  0  0
   25.4090   11.2590    6.0320 C   0  0  0  0  0  0  0  0  0  0  0  0
   26.1500   12.2380    5.3980 C   0  0  0  0  0  0  0  0  0  0  0  0
   25.6230   12.2900    4.1390 N   0  0  0  0  0  0  0  0  0  0  0  0
   26.1140   13.3390    2.9140 S   0  0  0  0  0  6  0  0  0  0  0  0
   24.9890   13.4630    2.0050 O   0  0  0  0  0  0  0  0  0  0  0  0
   27.3660   12.7600    2.4540 O   0  0  0  0  0  0  0  0  0  0  0  0
   26.4680   14.7910    3.5540 O   0  0  0  0  0  0  0  0  0  0  0  0
   26.1600   15.0480    4.8600 C   0  0  0  0  0  0  0  0  0  0  0  0
   24.8280   15.0910    5.2300 C   0  0  0  0  0  0  0  0  0  0  0  0
   24.4290   15.3870    6.4930 N   0  0  0  0  0  0  0  0  0  0  0  0
   25.4110   15.6440    7.3990 C   0  0  0  0  0  0  0  0  0  0  0  0
   24.9690   15.9580    8.7740 C   0  0  0  0  0  0  0  0  0  0  0  0
   23.7930   15.3880    9.3320 C   0  0  0  0  0  0  0  0  0  0  0  0
   23.3760   15.6790   10.6380 C   0  0  0  0  0  0  0  0  0  0  0  0
   24.1490   16.5560   11.3700 C   0  0  0  0  0  0  0  0  0  0  0  0
   25.3010   17.1410   10.8610 C   0  0  0  0  0  0  0  0  0  0  0  0
   25.7200   16.8520    9.5720 C   0  0  0  0  0  0  0  0  0  0  0  0
   25.9240   18.0210   11.8910 C   0  0  0  0  0  0  0  0  0  0  0  0
   24.9600   17.9660   12.9840 N   0  0  0  0  0  0  0  0  0  0  0  0
   25.2730   18.5160   14.2970 C   0  0  1  0  0  0  0  0  0  0  0  0
   26.4770   17.8570   14.9710 C   0  0  0  0  0  0  0  0  0  0  0  0
   26.6750   18.4630   16.3510 C   0  0  0  0  0  0  0  0  0  0  0  0
   26.8430   19.9620   16.2740 C   0  0  0  0  0  0  0  0  0  0  0  0
   27.4120   20.6030   17.1530 O   0  0  0  0  0  0  0  0  0  0  0  0
   26.2520   20.5950   15.2100 N   0  0  0  0  0  0  0  0  0  0  0  0
   25.4610   20.0410   14.2300 C   0  0  0  0  0  0  0  0  0  0  0  0
   24.8680   20.7620   13.4280 O   0  0  0  0  0  0  0  0  0  0  0  0
   23.9600   17.0360   12.7430 C   0  0  0  0  0  0  0  0  0  0  0  0
   23.0860   16.6500   13.4950 O   0  0  0  0  0  0  0  0  0  0  0  0
   26.7470   15.6170    6.9960 C   0  0  0  0  0  0  0  0  0  0  0  0
   27.1480   15.3240    5.7290 N   0  0  0  0  0  0  0  0  0  0  0  0
   24.6150   11.3870    4.0360 C   0  0  0  0  0  0  0  0  0  0  0  0
   24.4600   10.7390    5.1720 N   0  0  0  0  0  0  0  0  0  0  0  0
   24.7464    9.1845    8.6779 H   0  0  0  0  0  0  0  0  0  0  0  0
   23.8606    9.4192    7.1330 H   0  0  0  0  0  0  0  0  0  0  0  0
   25.4708    8.6230    7.1330 H   0  0  0  0  0  0  0  0  0  0  0  0
   25.0459   11.4780    8.1050 H   0  0  0  0  0  0  0  0  0  0  0  0
   26.5921   10.6359    7.6568 H   0  0  0  0  0  0  0  0  0  0  0  0
   26.9743   12.8373    5.8119 H   0  0  0  0  0  0  0  0  0  0  0  0
   24.0617   14.8768    4.4705 H   0  0  0  0  0  0  0  0  0  0  0  0
   23.1923   14.6981    8.7210 H   0  0  0  0  0  0  0  0  0  0  0  0
   22.4680   15.2258   11.0625 H   0  0  0  0  0  0  0  0  0  0  0  0
   26.6332   17.3162    9.1711 H   0  0  0  0  0  0  0  0  0  0  0  0
   26.9034   17.6316   12.2058 H   0  0  0  0  0  0  0  0  0  0  0  0
   26.1200   19.0423   11.5323 H   0  0  0  0  0  0  0  0  0  0  0  0
   24.4020   18.2863   14.9283 H   0  0  0  0  0  0  0  0  0  0  0  0
   26.2982   16.7759   15.0668 H   0  0  0  0  0  0  0  0  0  0  0  0
   27.3776   18.0253   14.3622 H   0  0  0  0  0  0  0  0  0  0  0  0
   25.7973   18.2324   16.9727 H   0  0  0  0  0  0  0  0  0  0  0  0
   27.5874   18.0338   16.7906 H   0  0  0  0  0  0  0  0  0  0  0  0
   26.4210   21.6083   15.1358 H   0  0  0  0  0  0  0  0  0  0  0  0
   27.5196   15.8455    7.7449 H   0  0  0  0  0  0  0  0  0  0  0  0
   24.0123   11.2199    3.1311 H   0  0  0  0  0  0  0  0  0  0  0  0
  1  2  1  0
  2  3  1  0
  3  4  2  0
  4  5  1  0
  5  6  1  0
  6  7  2  0
  6  8  2  0
  6  9  1  0
  9 10  1  0
 10 11  2  0
 11 12  1  0
 12 13  2  0
 13 14  1  0
 14 15  2  0
 15 16  1  0
 16 17  2  0
 17 18  1  0
 18 19  2  0
 18 20  1  0
 20 21  1  0
 21 22  1  0
 22 23  1  0
 23 24  1  0
 24 25  1  0
 25 26  2  0
 25 27  1  0
 27 28  1  0
 28 29  2  0
 21 30  1  0
 30 31  2  0
 13 32  1  0
 32 33  2  0
  5 34  1  0
 34 35  2  0
 35  3  1  0
 33 10  1  0
 19 14  1  0
 28 22  1  0
 30 17  1  0
  1 36  1  0
  1 37  1  0
  1 38  1  0
  2 39  1  0
  2 40  1  0
  4 41  1  0
 11 42  1  0
 15 43  1  0
 16 44  1  0
 19 45  1  0
 20 46  1  0
 20 47  1  0
 22 48  1  1
 23 49  1  0
 23 50  1  0
 24 51  1  0
 24 52  1  0
 27 53  1  0
 32 54  1  0
 34 55  1  0
M  END
>  <meeko>  (397) 
{"is_sidechain": [true], "free_energy": -12.74, "intermolecular_energy": 0.0, "internal_energy": -12.74, "cluster_size": 20, "cluster_id": 1, "rank_in_cluster": 1}

>  <_RMSD_MCS_to_ref>  (397) 
0.503963733263063

$$$$
ligand
     RDKit          3D

 60 64  0  0  0  0  0  0  0  0999 V2000
   24.8540    9.4020    7.6050 C   0  0  0  0  0  0  0  0  0  0  0  0
   25.5230   10.7550    7.4270 C   0  0  0  0  0  0  0  0  0  0  0  0
   25.3650   11.2820    6.0450 C   0  0  0  0  0  0  0  0  0  0  0  0
   26.1480   12.1970    5.3680 C   0  0  0  0  0  0  0  0  0  0  0  0
   25.5330   12.3340    4.1570 N   0  0  0  0  0  0  0  0  0  0  0  0
   26.1410   13.1720    2.8340 S   0  0  0  0  0  6  0  0  0  0  0  0
   27.1020   12.2880    2.2050 O   0  0  0  0  0  0  0  0  0  0  0  0
   24.9850   13.6900    2.1280 O   0  0  0  0  0  0  0  0  0  0  0  0
   27.0130   14.5320    3.5640 C   0  0  0  0  0  0  0  0  0  0  0  0
   28.2030   14.9810    2.9860 C   0  0  0  0  0  0  0  0  0  0  0  0
   28.8870   16.0520    3.5610 C   0  0  0  0  0  0  0  0  0  0  0  0
   28.3900   16.6610    4.7170 C   0  0  0  0  0  0  0  0  0  0  0  0
   27.2130   16.1860    5.3120 C   0  0  0  0  0  0  0  0  0  0  0  0
   26.6480   16.8110    6.5400 C   0  0  0  0  0  0  0  0  0  0  0  0
   26.4900   18.0260    6.5430 O   0  0  0  0  0  0  0  0  0  0  0  0
   26.3220   15.9260    7.5500 N   0  0  0  0  0  0  0  0  0  0  0  0
   25.8180   16.2420    8.8310 C   0  0  0  0  0  0  0  0  0  0  0  0
   24.6410   15.5700    9.2360 C   0  0  0  0  0  0  0  0  0  0  0  0
   24.0640   15.8070   10.4870 C   0  0  0  0  0  0  0  0  0  0  0  0
   24.6890   16.7200   11.3090 C   0  0  0  0  0  0  0  0  0  0  0  0
   25.8520   17.3860   10.9370 C   0  0  0  0  0  0  0  0  0  0  0  0
   26.4310   17.1550    9.6990 C   0  0  0  0  0  0  0  0  0  0  0  0
   26.3050   18.2770   12.0440 C   0  0  0  0  0  0  0  0  0  0  0  0
   25.2320   18.1410   13.0220 N   0  0  0  0  0  0  0  0  0  0  0  0
   25.3630   18.6840   14.3700 C   0  0  1  0  0  0  0  0  0  0  0  0
   26.4290   17.9860   15.2120 C   0  0  0  0  0  0  0  0  0  0  0  0
   26.4400   18.5850   16.6100 C   0  0  0  0  0  0  0  0  0  0  0  0
   26.6680   20.0770   16.5640 C   0  0  0  0  0  0  0  0  0  0  0  0
   27.1310   20.6980   17.5170 O   0  0  0  0  0  0  0  0  0  0  0  0
   26.2570   20.7300   15.4290 N   0  0  0  0  0  0  0  0  0  0  0  0
   25.6090   20.2000   14.3350 C   0  0  0  0  0  0  0  0  0  0  0  0
   25.1770   20.9410   13.4530 O   0  0  0  0  0  0  0  0  0  0  0  0
   24.3220   17.1590   12.6590 C   0  0  0  0  0  0  0  0  0  0  0  0
   23.3970   16.7060   13.3040 O   0  0  0  0  0  0  0  0  0  0  0  0
   26.5150   15.1220    4.7280 C   0  0  0  0  0  0  0  0  0  0  0  0
   24.4670   11.4950    4.1010 C   0  0  0  0  0  0  0  0  0  0  0  0
   24.3290   10.8490    5.2410 N   0  0  0  0  0  0  0  0  0  0  0  0
   24.7464    9.1845    8.6779 H   0  0  0  0  0  0  0  0  0  0  0  0
   23.8606    9.4192    7.1330 H   0  0  0  0  0  0  0  0  0  0  0  0
   25.4708    8.6230    7.1330 H   0  0  0  0  0  0  0  0  0  0  0  0
   25.0720   11.4688    8.1321 H   0  0  0  0  0  0  0  0  0  0  0  0
   26.5986   10.6280    7.6193 H   0  0  0  0  0  0  0  0  0  0  0  0
   27.0591   12.7003    5.7236 H   0  0  0  0  0  0  0  0  0  0  0  0
   28.5981   14.4929    2.0829 H   0  0  0  0  0  0  0  0  0  0  0  0
   29.8185   16.4178    3.1044 H   0  0  0  0  0  0  0  0  0  0  0  0
   28.9235   17.5146    5.1606 H   0  0  0  0  0  0  0  0  0  0  0  0
   26.4619   14.9261    7.3463 H   0  0  0  0  0  0  0  0  0  0  0  0
   24.1707   14.8470    8.5533 H   0  0  0  0  0  0  0  0  0  0  0  0
   23.1481   15.2859   10.8027 H   0  0  0  0  0  0  0  0  0  0  0  0
   27.3528   17.6778    9.4041 H   0  0  0  0  0  0  0  0  0  0  0  0
   27.2656   17.9377   12.4589 H   0  0  0  0  0  0  0  0  0  0  0  0
   26.4779   19.3158   11.7262 H   0  0  0  0  0  0  0  0  0  0  0  0
   24.4008   18.4865   14.8651 H   0  0  0  0  0  0  0  0  0  0  0  0
   26.2018   16.9116   15.2748 H   0  0  0  0  0  0  0  0  0  0  0  0
   27.4153   18.1244   14.7450 H   0  0  0  0  0  0  0  0  0  0  0  0
   25.4725   18.3848   17.0936 H   0  0  0  0  0  0  0  0  0  0  0  0
   27.2612   18.1249   17.1792 H   0  0  0  0  0  0  0  0  0  0  0  0
   26.4575   21.7396   15.3905 H   0  0  0  0  0  0  0  0  0  0  0  0
   25.5829   14.7541    5.1817 H   0  0  0  0  0  0  0  0  0  0  0  0
   23.8108   11.3719    3.2268 H   0  0  0  0  0  0  0  0  0  0  0  0
  1  2  1  0
  2  3  1  0
  3  4  2  0
  4  5  1  0
  5  6  1  0
  6  7  2  0
  6  8  2  0
  6  9  1  0
  9 10  2  0
 10 11  1  0
 11 12  2  0
 12 13  1  0
 13 14  1  0
 14 15  2  0
 14 16  1  0
 16 17  1  0
 17 18  2  0
 18 19  1  0
 19 20  2  0
 20 21  1  0
 21 22  2  0
 21 23  1  0
 23 24  1  0
 24 25  1  0
 25 26  1  0
 26 27  1  0
 27 28  1  0
 28 29  2  0
 28 30  1  0
 30 31  1  0
 31 32  2  0
 24 33  1  0
 33 34  2  0
 13 35  2  0
  5 36  1  0
 36 37  2  0
 37  3  1  0
 35  9  1  0
 22 17  1  0
 31 25  1  0
 33 20  1  0
  1 38  1  0
  1 39  1  0
  1 40  1  0
  2 41  1  0
  2 42  1  0
  4 43  1  0
 10 44  1  0
 11 45  1  0
 12 46  1  0
 16 47  1  0
 18 48  1  0
 19 49  1  0
 22 50  1  0
 23 51  1  0
 23 52  1  0
 25 53  1  1
 26 54  1  0
 26 55  1  0
 27 56  1  0
 27 57  1  0
 30 58  1  0
 35 59  1  0
 36 60  1  0
M  END
>  <meeko>  (398) 
{"is_sidechain": [true], "free_energy": -12.74, "intermolecular_energy": 0.0, "internal_energy": -12.74, "cluster_size": 11, "cluster_id": 1, "rank_in_cluster": 1}

>  <_RMSD_MCS_to_ref>  (398) 
0.57956136430925

$$$$
ligand
     RDKit          3D

 53 57  0  0  0  0  0  0  0  0999 V2000
   24.8540    9.4020    7.6050 C   0  0  0  0  0  0  0  0  0  0  0  0
   25.5230   10.7550    7.4270 C   0  0  0  0  0  0  0  0  0  0  0  0
   26.9940   10.6860    7.6430 C   0  0  0  0  0  0  0  0  0  0  0  0
   27.8270   11.6130    8.2380 C   0  0  0  0  0  0  0  0  0  0  0  0
   29.0710   11.0550    8.1450 N   0  0  0  0  0  0  0  0  0  0  0  0
   30.5360   11.8680    8.3700 S   0  0  0  0  0  6  0  0  0  0  0  0
   31.4850   11.1210    7.5640 O   0  0  0  0  0  0  0  0  0  0  0  0
   30.6940   11.9730    9.8090 O   0  0  0  0  0  0  0  0  0  0  0  0
   30.3800   13.3650    7.7180 O   0  0  0  0  0  0  0  0  0  0  0  0
   29.4100   14.1970    8.2060 C   0  0  0  0  0  0  0  0  0  0  0  0
   29.5470   14.7990    9.4480 C   0  0  0  0  0  0  0  0  0  0  0  0
   28.5280   15.6250    9.9280 C   0  0  0  0  0  0  0  0  0  0  0  0
   27.3540   15.8830    9.1730 C   0  0  0  0  0  0  0  0  0  0  0  0
   26.2740   16.6980    9.6060 C   0  0  0  0  0  0  0  0  0  0  0  0
   26.2620   17.3880   10.8800 C   0  0  0  0  0  0  0  0  0  0  0  0
   25.1750   17.5410   11.7150 C   0  0  0  0  0  0  0  0  0  0  0  0
   25.6670   18.2650   12.7620 N   0  0  0  0  0  0  0  0  0  0  0  0
   24.9590   18.7040   13.9480 C   0  0  1  0  0  0  0  0  0  0  0  0
   25.3700   17.9870   15.2360 C   0  0  0  0  0  0  0  0  0  0  0  0
   26.6830   18.5070   15.8060 C   0  0  0  0  0  0  0  0  0  0  0  0
   26.6820   20.0100   15.9310 C   0  0  0  0  0  0  0  0  0  0  0  0
   27.3380   20.5980   16.7870 O   0  0  0  0  0  0  0  0  0  0  0  0
   25.9300   20.7050   15.0190 N   0  0  0  0  0  0  0  0  0  0  0  0
   25.0510   20.2090   14.0880 C   0  0  0  0  0  0  0  0  0  0  0  0
   24.3710   20.9710   13.4030 O   0  0  0  0  0  0  0  0  0  0  0  0
   26.9720   18.5340   12.5960 N   0  0  0  0  0  0  0  0  0  0  0  0
   27.3480   18.0060   11.4400 N   0  0  0  0  0  0  0  0  0  0  0  0
   25.1790   16.8420    8.7530 C   0  0  0  0  0  0  0  0  0  0  0  0
   25.0630   16.2550    7.5420 N   0  0  0  0  0  0  0  0  0  0  0  0
   26.1020   15.4900    7.1480 C   0  0  0  0  0  0  0  0  0  0  0  0
   27.2550   15.2680    7.9020 C   0  0  0  0  0  0  0  0  0  0  0  0
   28.2890   14.4450    7.4210 C   0  0  0  0  0  0  0  0  0  0  0  0
   28.9770    9.8660    7.4950 C   0  0  0  0  0  0  0  0  0  0  0  0
   27.7240    9.6050    7.1880 N   0  0  0  0  0  0  0  0  0  0  0  0
   24.7464    9.1845    8.6779 H   0  0  0  0  0  0  0  0  0  0  0  0
   23.8606    9.4192    7.1330 H   0  0  0  0  0  0  0  0  0  0  0  0
   25.4708    8.6230    7.1330 H   0  0  0  0  0  0  0  0  0  0  0  0
   25.3312   11.1136    6.4049 H   0  0  0  0  0  0  0  0  0  0  0  0
   25.1028   11.4415    8.1768 H   0  0  0  0  0  0  0  0  0  0  0  0
   27.5519   12.5798    8.6848 H   0  0  0  0  0  0  0  0  0  0  0  0
   30.4512   14.6273   10.0504 H   0  0  0  0  0  0  0  0  0  0  0  0
   28.6384   16.0888   10.9193 H   0  0  0  0  0  0  0  0  0  0  0  0
   24.1507   17.1668   11.5707 H   0  0  0  0  0  0  0  0  0  0  0  0
   23.9073   18.4180   13.7991 H   0  0  0  0  0  0  0  0  0  0  0  0
   24.5790   18.1313   15.9867 H   0  0  0  0  0  0  0  0  0  0  0  0
   25.5118   16.9236   14.9930 H   0  0  0  0  0  0  0  0  0  0  0  0
   26.8381   18.0668   16.8021 H   0  0  0  0  0  0  0  0  0  0  0  0
   27.4920   18.2213   15.1177 H   0  0  0  0  0  0  0  0  0  0  0  0
   26.0382   21.7292   15.0343 H   0  0  0  0  0  0  0  0  0  0  0  0
   24.3496   17.4803    9.0916 H   0  0  0  0  0  0  0  0  0  0  0  0
   26.0355   15.0068    6.1621 H   0  0  0  0  0  0  0  0  0  0  0  0
   28.2108   13.9957    6.4200 H   0  0  0  0  0  0  0  0  0  0  0  0
   29.8294    9.2123    7.2582 H   0  0  0  0  0  0  0  0  0  0  0  0
  1  2  1  0
  2  3  1  0
  3  4  2  0
  4  5  1  0
  5  6  1  0
  6  7  2  0
  6  8  2  0
  6  9  1  0
  9 10  1  0
 10 11  2  0
 11 12  1  0
 12 13  2  0
 13 14  1  0
 14 15  1  0
 15 16  2  0
 16 17  1  0
 17 18  1  0
 18 19  1  0
 19 20  1  0
 20 21  1  0
 21 22  2  0
 21 23  1  0
 23 24  1  0
 24 25  2  0
 17 26  1  0
 26 27  2  0
 14 28  2  0
 28 29  1  0
 29 30  2  0
 30 31  1  0
 31 32  2  0
  5 33  1  0
 33 34  2  0
 34  3  1  0
 32 10  1  0
 31 13  1  0
 27 15  1  0
 24 18  1  0
  1 35  1  0
  1 36  1  0
  1 37  1  0
  2 38  1  0
  2 39  1  0
  4 40  1  0
 11 41  1  0
 12 42  1  0
 16 43  1  0
 18 44  1  6
 19 45  1  0
 19 46  1  0
 20 47  1  0
 20 48  1  0
 23 49  1  0
 28 50  1  0
 30 51  1  0
 32 52  1  0
 33 53  1  0
M  END
>  <meeko>  (399) 
{"is_sidechain": [true], "free_energy": -12.73, "intermolecular_energy": 0.0, "internal_energy": -12.73, "cluster_size": 20, "cluster_id": 1, "rank_in_cluster": 1}

>  <_RMSD_MCS_to_ref>  (399) 
0.7093153193201333

$$$$
ligand
     RDKit          3D

 52 56  0  0  0  0  0  0  0  0999 V2000
   24.8710    9.6160    7.7820 C   0  0  0  0  0  0  0  0  0  0  0  0
   25.4240   10.9650    7.3490 C   0  0  0  0  0  0  0  0  0  0  0  0
   26.8410   11.1520    7.7640 C   0  0  0  0  0  0  0  0  0  0  0  0
   27.3950   12.1500    8.5400 C   0  0  0  0  0  0  0  0  0  0  0  0
   28.7160   11.8140    8.6230 N   0  0  0  0  0  0  0  0  0  0  0  0
   29.9410   12.7850    9.2580 S   0  0  0  0  0  6  0  0  0  0  0  0
   29.6630   12.8360   10.6810 O   0  0  0  0  0  0  0  0  0  0  0  0
   31.1680   12.2060    8.7410 O   0  0  0  0  0  0  0  0  0  0  0  0
   29.7210   14.2530    8.6120 O   0  0  0  0  0  0  0  0  0  0  0  0
   28.7240   14.5330    7.7580 C   0  0  0  0  0  0  0  0  0  0  0  0
   28.9990   14.2600    6.4800 N   0  0  0  0  0  0  0  0  0  0  0  0
   27.8590   14.6140    5.7770 O   0  0  0  0  0  0  0  0  0  0  0  0
   26.9230   15.0740    6.6410 C   0  0  0  0  0  0  0  0  0  0  0  0
   27.4160   15.0450    7.9240 C   0  0  0  0  0  0  0  0  0  0  0  0
   26.6280   15.4330    9.0670 C   0  0  0  0  0  0  0  0  0  0  0  0
   25.3630   14.8370    9.2840 C   0  0  0  0  0  0  0  0  0  0  0  0
   24.5710   15.2070   10.3780 C   0  0  0  0  0  0  0  0  0  0  0  0
   25.0770   16.1710   11.2260 C   0  0  0  0  0  0  0  0  0  0  0  0
   26.3180   16.7460   11.0210 C   0  0  0  0  0  0  0  0  0  0  0  0
   27.1230   16.3980    9.9540 C   0  0  0  0  0  0  0  0  0  0  0  0
   26.5420   17.7010   12.1030 C   0  0  0  0  0  0  0  0  0  0  0  0
   27.5610   18.3510   12.2420 O   0  0  0  0  0  0  0  0  0  0  0  0
   25.4140   17.6910   12.8780 N   0  0  0  0  0  0  0  0  0  0  0  0
   25.3250   18.4050   14.1430 C   0  0  1  0  0  0  0  0  0  0  0  0
   26.1470   17.7920   15.2730 C   0  0  0  0  0  0  0  0  0  0  0  0
   25.9400   18.6060   16.5410 C   0  0  0  0  0  0  0  0  0  0  0  0
   26.2910   20.0600   16.3240 C   0  0  0  0  0  0  0  0  0  0  0  0
   26.6840   20.7830   17.2340 O   0  0  0  0  0  0  0  0  0  0  0  0
   26.0930   20.5590   15.0600 N   0  0  0  0  0  0  0  0  0  0  0  0
   25.7330   19.8660   13.9250 C   0  0  0  0  0  0  0  0  0  0  0  0
   25.6990   20.4320   12.8340 O   0  0  0  0  0  0  0  0  0  0  0  0
   24.5140   16.7590   12.4390 C   0  0  0  0  0  0  0  0  0  0  0  0
   23.4550   16.4210   12.9310 O   0  0  0  0  0  0  0  0  0  0  0  0
   28.9450   10.7150    7.8610 C   0  0  0  0  0  0  0  0  0  0  0  0
   27.8180   10.2680    7.3470 N   0  0  0  0  0  0  0  0  0  0  0  0
   24.8497    9.5640    8.8806 H   0  0  0  0  0  0  0  0  0  0  0  0
   23.8507    9.4948    7.3893 H   0  0  0  0  0  0  0  0  0  0  0  0
   25.5127    8.8135    7.3893 H   0  0  0  0  0  0  0  0  0  0  0  0
   25.3635   11.0372    6.2530 H   0  0  0  0  0  0  0  0  0  0  0  0
   24.8238   11.7477    7.8359 H   0  0  0  0  0  0  0  0  0  0  0  0
   26.8885   13.0172    8.9887 H   0  0  0  0  0  0  0  0  0  0  0  0
   25.9177   15.4195    6.3582 H   0  0  0  0  0  0  0  0  0  0  0  0
   24.9966   14.0722    8.5834 H   0  0  0  0  0  0  0  0  0  0  0  0
   23.5868   14.7484   10.5540 H   0  0  0  0  0  0  0  0  0  0  0  0
   28.1109   16.8589    9.8068 H   0  0  0  0  0  0  0  0  0  0  0  0
   24.2775   18.3312   14.4707 H   0  0  0  0  0  0  0  0  0  0  0  0
   25.8214   16.7553   15.4441 H   0  0  0  0  0  0  0  0  0  0  0  0
   27.2126   17.7981   15.0000 H   0  0  0  0  0  0  0  0  0  0  0  0
   24.8853   18.5336   16.8451 H   0  0  0  0  0  0  0  0  0  0  0  0
   26.5994   18.2029   17.3237 H   0  0  0  0  0  0  0  0  0  0  0  0
   26.2302   21.5735   14.9469 H   0  0  0  0  0  0  0  0  0  0  0  0
   29.9333   10.2611    7.6958 H   0  0  0  0  0  0  0  0  0  0  0  0
  1  2  1  0
  2  3  1  0
  3  4  2  0
  4  5  1  0
  5  6  1  0
  6  7  2  0
  6  8  2  0
  6  9  1  0
  9 10  1  0
 10 11  2  0
 11 12  1  0
 12 13  1  0
 13 14  2  0
 14 15  1  0
 15 16  2  0
 16 17  1  0
 17 18  2  0
 18 19  1  0
 19 20  2  0
 19 21  1  0
 21 22  2  0
 21 23  1  0
 23 24  1  0
 24 25  1  0
 25 26  1  0
 26 27  1  0
 27 28  2  0
 27 29  1  0
 29 30  1  0
 30 31  2  0
 23 32  1  0
 32 33  2  0
  5 34  1  0
 34 35  2  0
 35  3  1  0
 14 10  1  0
 20 15  1  0
 30 24  1  0
 32 18  1  0
  1 36  1  0
  1 37  1  0
  1 38  1  0
  2 39  1  0
  2 40  1  0
  4 41  1  0
 13 42  1  0
 16 43  1  0
 17 44  1  0
 20 45  1  0
 24 46  1  1
 25 47  1  0
 25 48  1  0
 26 49  1  0
 26 50  1  0
 29 51  1  0
 34 52  1  0
M  END
>  <meeko>  (400) 
{"is_sidechain": [true], "free_energy": -12.73, "intermolecular_energy": 0.0, "internal_energy": -12.73, "cluster_size": 13, "cluster_id": 1, "rank_in_cluster": 1}

>  <_RMSD_MCS_to_ref>  (400) 
1.04687638138165

$$$$
ligand
     RDKit          3D

 59 64  0  0  0  0  0  0  0  0999 V2000
   24.8710    9.6160    7.7820 C   0  0  0  0  0  0  0  0  0  0  0  0
   25.4240   10.9650    7.3490 C   0  0  0  0  0  0  0  0  0  0  0  0
   26.8250   11.1720    7.8060 C   0  0  0  0  0  0  0  0  0  0  0  0
   27.3110   12.0550    8.7490 C   0  0  0  0  0  0  0  0  0  0  0  0
   28.6530   11.8020    8.7900 N   0  0  0  0  0  0  0  0  0  0  0  0
   29.8110   12.8040    9.5020 S   0  0  0  0  0  6  0  0  0  0  0  0
   31.0730   12.3770    8.9300 O   0  0  0  0  0  0  0  0  0  0  0  0
   29.5480   12.7180   10.9260 O   0  0  0  0  0  0  0  0  0  0  0  0
   29.4350   14.3120    8.9980 O   0  0  0  0  0  0  0  0  0  0  0  0
   28.8370   14.4580    7.7680 C   0  0  0  0  0  0  0  0  0  0  0  0
   27.5650   15.0580    7.6730 C   0  0  0  0  0  0  0  0  0  0  0  0
   26.7960   15.4720    8.8610 C   0  0  0  0  0  0  0  0  0  0  0  0
   25.5530   14.8550    9.1550 C   0  0  0  0  0  0  0  0  0  0  0  0
   24.8230   15.1860   10.3000 C   0  0  0  0  0  0  0  0  0  0  0  0
   25.3660   16.1290   11.1460 C   0  0  0  0  0  0  0  0  0  0  0  0
   26.5820   16.7550   10.8900 C   0  0  0  0  0  0  0  0  0  0  0  0
   27.2990   16.4510    9.7450 C   0  0  0  0  0  0  0  0  0  0  0  0
   26.9100   17.7010   11.9990 C   0  0  0  0  0  0  0  0  0  0  0  0
   25.8100   17.4920   12.9290 N   0  0  0  0  0  0  0  0  0  0  0  0
   25.5830   18.3130   14.1100 C   0  0  1  0  0  0  0  0  0  0  0  0
   26.2920   17.7630   15.3450 C   0  0  0  0  0  0  0  0  0  0  0  0
   25.9370   18.6150   16.5530 C   0  0  0  0  0  0  0  0  0  0  0  0
   26.2730   20.0680   16.3100 C   0  0  0  0  0  0  0  0  0  0  0  0
   26.6950   20.8030   17.1970 O   0  0  0  0  0  0  0  0  0  0  0  0
   26.0660   20.5410   15.0380 N   0  0  0  0  0  0  0  0  0  0  0  0
   26.0110   19.7730   13.8960 C   0  0  0  0  0  0  0  0  0  0  0  0
   26.3010   20.2630   12.8070 O   0  0  0  0  0  0  0  0  0  0  0  0
   24.8480   16.6330   12.4220 C   0  0  0  0  0  0  0  0  0  0  0  0
   23.7780   16.3270   12.9120 O   0  0  0  0  0  0  0  0  0  0  0  0
   27.0450   15.2140    6.3830 C   0  0  0  0  0  0  0  0  0  0  0  0
   27.6380   14.8560    5.2130 N   0  0  0  0  0  0  0  0  0  0  0  0
   28.8480   14.2990    5.3940 C   0  0  0  0  0  0  0  0  0  0  0  0
   29.6870   13.8450    4.4180 N   0  0  0  0  0  0  0  0  0  0  0  0
   30.8490   13.3460    4.8920 N   0  0  0  0  0  0  0  0  0  0  0  0
   30.7260   13.4820    6.2180 C   0  0  0  0  0  0  0  0  0  0  0  0
   29.5010   14.0730    6.5950 C   0  0  0  0  0  0  0  0  0  0  0  0
   28.9510   10.8580    7.8600 C   0  0  0  0  0  0  0  0  0  0  0  0
   27.8590   10.4460    7.2490 N   0  0  0  0  0  0  0  0  0  0  0  0
   24.8497    9.5640    8.8806 H   0  0  0  0  0  0  0  0  0  0  0  0
   23.8507    9.4948    7.3893 H   0  0  0  0  0  0  0  0  0  0  0  0
   25.5127    8.8135    7.3893 H   0  0  0  0  0  0  0  0  0  0  0  0
   25.3976   11.0225    6.2508 H   0  0  0  0  0  0  0  0  0  0  0  0
   24.8008   11.7476    7.8064 H   0  0  0  0  0  0  0  0  0  0  0  0
   26.7458   12.7949    9.3348 H   0  0  0  0  0  0  0  0  0  0  0  0
   25.1537   14.0973    8.4648 H   0  0  0  0  0  0  0  0  0  0  0  0
   23.8540   14.7129   10.5173 H   0  0  0  0  0  0  0  0  0  0  0  0
   28.2469   16.9650    9.5274 H   0  0  0  0  0  0  0  0  0  0  0  0
   27.8754   17.4501   12.4627 H   0  0  0  0  0  0  0  0  0  0  0  0
   27.0114   18.7452   11.6683 H   0  0  0  0  0  0  0  0  0  0  0  0
   24.4968   18.2814   14.2808 H   0  0  0  0  0  0  0  0  0  0  0  0
   25.9712   16.7256   15.5207 H   0  0  0  0  0  0  0  0  0  0  0  0
   27.3801   17.7876   15.1852 H   0  0  0  0  0  0  0  0  0  0  0  0
   24.8592   18.5238   16.7530 H   0  0  0  0  0  0  0  0  0  0  0  0
   26.5209   18.2603   17.4151 H   0  0  0  0  0  0  0  0  0  0  0  0
   25.9411   21.5575   14.9282 H   0  0  0  0  0  0  0  0  0  0  0  0
   26.0495   15.6759    6.3076 H   0  0  0  0  0  0  0  0  0  0  0  0
   29.4559   13.8797    3.4149 H   0  0  0  0  0  0  0  0  0  0  0  0
   31.4969   13.1670    6.9367 H   0  0  0  0  0  0  0  0  0  0  0  0
   29.9648   10.4883    7.6464 H   0  0  0  0  0  0  0  0  0  0  0  0
  1  2  1  0
  2  3  1  0
  3  4  2  0
  4  5  1  0
  5  6  1  0
  6  7  2  0
  6  8  2  0
  6  9  1  0
  9 10  1  0
 10 11  1  0
 11 12  1  0
 12 13  2  0
 13 14  1  0
 14 15  2  0
 15 16  1  0
 16 17  2  0
 16 18  1  0
 18 19  1  0
 19 20  1  0
 20 21  1  0
 21 22  1  0
 22 23  1  0
 23 24  2  0
 23 25  1  0
 25 26  1  0
 26 27  2  0
 19 28  1  0
 28 29  2  0
 11 30  2  0
 30 31  1  0
 31 32  2  0
 32 33  1  0
 33 34  1  0
 34 35  2  0
 35 36  1  0
  5 37  1  0
 37 38  2  0
 38  3  1  0
 36 10  2  0
 17 12  1  0
 26 20  1  0
 36 32  1  0
 28 15  1  0
  1 39  1  0
  1 40  1  0
  1 41  1  0
  2 42  1  0
  2 43  1  0
  4 44  1  0
 13 45  1  0
 14 46  1  0
 17 47  1  0
 18 48  1  0
 18 49  1  0
 20 50  1  1
 21 51  1  0
 21 52  1  0
 22 53  1  0
 22 54  1  0
 25 55  1  0
 30 56  1  0
 33 57  1  0
 35 58  1  0
 37 59  1  0
M  END
>  <meeko>  (401) 
{"is_sidechain": [true], "free_energy": -12.73, "intermolecular_energy": 0.0, "internal_energy": -12.73, "cluster_size": 12, "cluster_id": 1, "rank_in_cluster": 1}

>  <_RMSD_MCS_to_ref>  (401) 
1.2572888752349132

$$$$
ligand
     RDKit          3D

 57 61  0  0  0  0  0  0  0  0999 V2000
   24.8540    9.4020    7.6050 C   0  0  0  0  0  0  0  0  0  0  0  0
   25.5230   10.7550    7.4270 C   0  0  0  0  0  0  0  0  0  0  0  0
   26.9970   10.6850    7.6230 C   0  0  0  0  0  0  0  0  0  0  0  0
   27.8810   11.7010    7.9280 C   0  0  0  0  0  0  0  0  0  0  0  0
   29.1000   11.0840    7.9640 N   0  0  0  0  0  0  0  0  0  0  0  0
   30.5350   11.7730    8.5200 S   0  0  0  0  0  6  0  0  0  0  0  0
   30.9290   12.6880    7.4650 O   0  0  0  0  0  0  0  0  0  0  0  0
   31.3640   10.6410    8.8910 O   0  0  0  0  0  0  0  0  0  0  0  0
   30.1340   12.6100    9.8570 O   0  0  0  0  0  0  0  0  0  0  0  0
   29.6070   13.8740    9.8120 C   0  0  0  0  0  0  0  0  0  0  0  0
   30.3380   15.0520    9.6800 C   0  0  0  0  0  0  0  0  0  0  0  0
   29.6750   16.2800    9.6370 C   0  0  0  0  0  0  0  0  0  0  0  0
   28.2830   16.3310    9.7280 C   0  0  0  0  0  0  0  0  0  0  0  0
   27.5270   15.1580    9.8660 C   0  0  0  0  0  0  0  0  0  0  0  0
   26.0640   15.2160    9.9820 C   0  0  0  0  0  0  0  0  0  0  0  0
   25.2570   14.4830    9.0850 C   0  0  0  0  0  0  0  0  0  0  0  0
   23.8520   14.5120    9.1550 C   0  0  0  0  0  0  0  0  0  0  0  0
   23.2040   15.2740   10.1260 C   0  0  0  0  0  0  0  0  0  0  0  0
   23.9840   15.9930   11.0160 C   0  0  0  0  0  0  0  0  0  0  0  0
   25.3820   15.9630   10.9400 C   0  0  0  0  0  0  0  0  0  0  0  0
   25.8890   16.8260   12.0290 C   0  0  0  0  0  0  0  0  0  0  0  0
   27.0510   17.1230   12.2290 O   0  0  0  0  0  0  0  0  0  0  0  0
   24.7880   17.2580   12.7570 N   0  0  0  0  0  0  0  0  0  0  0  0
   24.8390   18.3050   13.7730 C   0  0  1  0  0  0  0  0  0  0  0  0
   25.2480   17.8010   15.1580 C   0  0  0  0  0  0  0  0  0  0  0  0
   25.2150   18.9580   16.1440 C   0  0  0  0  0  0  0  0  0  0  0  0
   26.1050   20.0910   15.6880 C   0  0  0  0  0  0  0  0  0  0  0  0
   26.5710   20.9120   16.4730 O   0  0  0  0  0  0  0  0  0  0  0  0
   26.3020   20.2140   14.3360 N   0  0  0  0  0  0  0  0  0  0  0  0
   25.7440   19.4640   13.3280 C   0  0  0  0  0  0  0  0  0  0  0  0
   25.8970   19.7920   12.1520 O   0  0  0  0  0  0  0  0  0  0  0  0
   23.5380   16.8850   12.1230 C   0  0  0  0  0  0  0  0  0  0  0  0
   28.2120   13.9340    9.9150 C   0  0  0  0  0  0  0  0  0  0  0  0
   28.9280    9.7510    7.7730 C   0  0  0  0  0  0  0  0  0  0  0  0
   27.6620    9.4780    7.5320 N   0  0  0  0  0  0  0  0  0  0  0  0
   24.7464    9.1845    8.6779 H   0  0  0  0  0  0  0  0  0  0  0  0
   23.8606    9.4192    7.1330 H   0  0  0  0  0  0  0  0  0  0  0  0
   25.4708    8.6230    7.1330 H   0  0  0  0  0  0  0  0  0  0  0  0
   25.3181   11.1202    6.4098 H   0  0  0  0  0  0  0  0  0  0  0  0
   25.1137   11.4361    8.1876 H   0  0  0  0  0  0  0  0  0  0  0  0
   27.6557   12.7635    8.1021 H   0  0  0  0  0  0  0  0  0  0  0  0
   31.4351   15.0151    9.6098 H   0  0  0  0  0  0  0  0  0  0  0  0
   30.2517   17.2107    9.5310 H   0  0  0  0  0  0  0  0  0  0  0  0
   27.7722   17.3045    9.6910 H   0  0  0  0  0  0  0  0  0  0  0  0
   25.7406   13.8715    8.3090 H   0  0  0  0  0  0  0  0  0  0  0  0
   23.2589   13.9275    8.4363 H   0  0  0  0  0  0  0  0  0  0  0  0
   22.1059   15.3032   10.1835 H   0  0  0  0  0  0  0  0  0  0  0  0
   23.8070   18.6722   13.8737 H   0  0  0  0  0  0  0  0  0  0  0  0
   24.5476   17.0187   15.4859 H   0  0  0  0  0  0  0  0  0  0  0  0
   26.2650   17.3843   15.1129 H   0  0  0  0  0  0  0  0  0  0  0  0
   24.1820   19.3260   16.2308 H   0  0  0  0  0  0  0  0  0  0  0  0
   25.5815   18.5972   17.1164 H   0  0  0  0  0  0  0  0  0  0  0  0
   26.9474   20.9600   14.0396 H   0  0  0  0  0  0  0  0  0  0  0  0
   22.8822   16.3486   12.8246 H   0  0  0  0  0  0  0  0  0  0  0  0
   22.9499   17.7480   11.7775 H   0  0  0  0  0  0  0  0  0  0  0  0
   27.6407   13.0019   10.0369 H   0  0  0  0  0  0  0  0  0  0  0  0
   29.7335    9.0031    7.8138 H   0  0  0  0  0  0  0  0  0  0  0  0
  1  2  1  0
  2  3  1  0
  3  4  2  0
  4  5  1  0
  5  6  1  0
  6  7  2  0
  6  8  2  0
  6  9  1  0
  9 10  1  0
 10 11  2  0
 11 12  1  0
 12 13  2  0
 13 14  1  0
 14 15  1  0
 15 16  2  0
 16 17  1  0
 17 18  2  0
 18 19  1  0
 19 20  2  0
 20 21  1  0
 21 22  2  0
 21 23  1  0
 23 24  1  0
 24 25  1  0
 25 26  1  0
 26 27  1  0
 27 28  2  0
 27 29  1  0
 29 30  1  0
 30 31  2  0
 23 32  1  0
 14 33  2  0
  5 34  1  0
 34 35  2  0
 35  3  1  0
 33 10  1  0
 20 15  1  0
 30 24  1  0
 32 19  1  0
  1 36  1  0
  1 37  1  0
  1 38  1  0
  2 39  1  0
  2 40  1  0
  4 41  1  0
 11 42  1  0
 12 43  1  0
 13 44  1  0
 16 45  1  0
 17 46  1  0
 18 47  1  0
 24 48  1  1
 25 49  1  0
 25 50  1  0
 26 51  1  0
 26 52  1  0
 29 53  1  0
 32 54  1  0
 32 55  1  0
 33 56  1  0
 34 57  1  0
M  END
>  <meeko>  (402) 
{"is_sidechain": [true], "free_energy": -12.72, "intermolecular_energy": 0.0, "internal_energy": -12.72, "cluster_size": 18, "cluster_id": 1, "rank_in_cluster": 1}

>  <_RMSD_MCS_to_ref>  (402) 
1.2993518042128198

$$$$
ligand
     RDKit          3D

 60 65  0  0  0  0  0  0  0  0999 V2000
   24.8540    9.4020    7.6050 C   0  0  0  0  0  0  0  0  0  0  0  0
   25.5230   10.7550    7.4270 C   0  0  0  0  0  0  0  0  0  0  0  0
   25.1780   11.3860    6.1240 C   0  0  0  0  0  0  0  0  0  0  0  0
   24.4260   12.5190    5.8810 C   0  0  0  0  0  0  0  0  0  0  0  0
   24.4140   12.6280    4.5180 N   0  0  0  0  0  0  0  0  0  0  0  0
   23.7250   13.8770    3.6320 S   0  0  0  0  0  6  0  0  0  0  0  0
   22.2950   13.7250    3.8570 O   0  0  0  0  0  0  0  0  0  0  0  0
   24.3110   13.7790    2.3060 O   0  0  0  0  0  0  0  0  0  0  0  0
   24.3010   15.3600    4.4300 C   0  0  0  0  0  0  0  0  0  0  0  0
   24.8140   15.2110    5.6730 N   0  0  0  0  0  0  0  0  0  0  0  0
   25.2900   16.3130    6.3090 C   0  0  0  0  0  0  0  0  0  0  0  0
   25.8800   16.2450    7.5780 N   0  0  0  0  0  0  0  0  0  0  0  0
   25.3660   16.4020    8.8770 C   0  0  0  0  0  0  0  0  0  0  0  0
   24.1690   15.7970    9.3140 C   0  0  0  0  0  0  0  0  0  0  0  0
   23.6990   15.9220   10.6310 C   0  0  0  0  0  0  0  0  0  0  0  0
   24.4420   16.6710   11.5180 C   0  0  0  0  0  0  0  0  0  0  0  0
   25.6210   17.2740   11.0930 C   0  0  0  0  0  0  0  0  0  0  0  0
   26.1020   17.1610    9.8000 C   0  0  0  0  0  0  0  0  0  0  0  0
   26.1890   18.0130   12.2230 C   0  0  0  0  0  0  0  0  0  0  0  0
   27.1790   18.7160   12.1710 O   0  0  0  0  0  0  0  0  0  0  0  0
   25.3600   17.7840   13.3090 N   0  0  0  0  0  0  0  0  0  0  0  0
   25.4960   18.5140   14.5650 C   0  0  1  0  0  0  0  0  0  0  0  0
   26.5780   17.8830   15.4450 C   0  0  0  0  0  0  0  0  0  0  0  0
   26.6120   18.5770   16.7970 C   0  0  0  0  0  0  0  0  0  0  0  0
   26.8230   20.0630   16.6430 C   0  0  0  0  0  0  0  0  0  0  0  0
   27.4280   20.7310   17.4760 O   0  0  0  0  0  0  0  0  0  0  0  0
   26.2710   20.6500   15.5340 N   0  0  0  0  0  0  0  0  0  0  0  0
   25.7730   20.0190   14.4160 C   0  0  0  0  0  0  0  0  0  0  0  0
   25.5460   20.6680   13.3970 O   0  0  0  0  0  0  0  0  0  0  0  0
   24.1970   16.9730   12.9590 C   0  0  0  0  0  0  0  0  0  0  0  0
   25.2020   17.5470    5.6230 C   0  0  0  0  0  0  0  0  0  0  0  0
   25.5580   18.9030    5.8920 C   0  0  0  0  0  0  0  0  0  0  0  0
   25.2050   19.6600    4.7940 C   0  0  0  0  0  0  0  0  0  0  0  0
   24.6490   18.8170    3.8670 N   0  0  0  0  0  0  0  0  0  0  0  0
   24.6400   17.5380    4.3550 C   0  0  0  0  0  0  0  0  0  0  0  0
   24.1670   16.4780    3.6880 N   0  0  0  0  0  0  0  0  0  0  0  0
   25.1580   11.6230    3.9860 C   0  0  0  0  0  0  0  0  0  0  0  0
   25.6330   10.8460    4.9380 N   0  0  0  0  0  0  0  0  0  0  0  0
   24.7464    9.1845    8.6779 H   0  0  0  0  0  0  0  0  0  0  0  0
   23.8606    9.4192    7.1330 H   0  0  0  0  0  0  0  0  0  0  0  0
   25.4708    8.6230    7.1330 H   0  0  0  0  0  0  0  0  0  0  0  0
   25.1977   11.4207    8.2401 H   0  0  0  0  0  0  0  0  0  0  0  0
   26.6116   10.5987    7.4487 H   0  0  0  0  0  0  0  0  0  0  0  0
   23.9464   13.1821    6.6161 H   0  0  0  0  0  0  0  0  0  0  0  0
   26.8890   16.0395    7.5545 H   0  0  0  0  0  0  0  0  0  0  0  0
   23.5820   15.2053    8.5962 H   0  0  0  0  0  0  0  0  0  0  0  0
   22.7640   15.4358   10.9462 H   0  0  0  0  0  0  0  0  0  0  0  0
   27.0391   17.6545    9.5029 H   0  0  0  0  0  0  0  0  0  0  0  0
   24.5080   18.4314   15.0415 H   0  0  0  0  0  0  0  0  0  0  0  0
   26.3555   16.8153   15.5881 H   0  0  0  0  0  0  0  0  0  0  0  0
   27.5561   17.9954   14.9545 H   0  0  0  0  0  0  0  0  0  0  0  0
   25.6570   18.4020   17.3141 H   0  0  0  0  0  0  0  0  0  0  0  0
   27.4497   18.1649   17.3788 H   0  0  0  0  0  0  0  0  0  0  0  0
   26.2234   21.6789   15.5374 H   0  0  0  0  0  0  0  0  0  0  0  0
   24.1590   16.0514   13.5583 H   0  0  0  0  0  0  0  0  0  0  0  0
   23.2368   17.4758   13.1466 H   0  0  0  0  0  0  0  0  0  0  0  0
   26.0302   19.2780    6.8120 H   0  0  0  0  0  0  0  0  0  0  0  0
   25.3447   20.7454    4.6824 H   0  0  0  0  0  0  0  0  0  0  0  0
   24.2923   19.1024    2.9439 H   0  0  0  0  0  0  0  0  0  0  0  0
   25.3385   11.4784    2.9106 H   0  0  0  0  0  0  0  0  0  0  0  0
  1  2  1  0
  2  3  1  0
  3  4  2  0
  4  5  1  0
  5  6  1  0
  6  7  2  0
  6  8  2  0
  6  9  1  0
  9 10  2  0
 10 11  1  0
 11 12  1  0
 12 13  1  0
 13 14  2  0
 14 15  1  0
 15 16  2  0
 16 17  1  0
 17 18  2  0
 17 19  1  0
 19 20  2  0
 19 21  1  0
 21 22  1  0
 22 23  1  0
 23 24  1  0
 24 25  1  0
 25 26  2  0
 25 27  1  0
 27 28  1  0
 28 29  2  0
 21 30  1  0
 11 31  2  0
 31 32  1  0
 32 33  2  0
 33 34  1  0
 34 35  1  0
 35 36  2  0
  5 37  1  0
 37 38  2  0
 38  3  1  0
 36  9  1  0
 18 13  1  0
 28 22  1  0
 35 31  1  0
 30 16  1  0
  1 39  1  0
  1 40  1  0
  1 41  1  0
  2 42  1  0
  2 43  1  0
  4 44  1  0
 12 45  1  0
 14 46  1  0
 15 47  1  0
 18 48  1  0
 22 49  1  1
 23 50  1  0
 23 51  1  0
 24 52  1  0
 24 53  1  0
 27 54  1  0
 30 55  1  0
 30 56  1  0
 32 57  1  0
 33 58  1  0
 34 59  1  0
 37 60  1  0
M  END
>  <meeko>  (403) 
{"is_sidechain": [true], "free_energy": -12.71, "intermolecular_energy": 0.0, "internal_energy": -12.71, "cluster_size": 14, "cluster_id": 1, "rank_in_cluster": 1}

>  <_RMSD_MCS_to_ref>  (403) 
0.5884828893953582

$$$$
ligand
     RDKit          3D

 60 65  0  0  0  0  0  0  0  0999 V2000
   24.8710    9.6160    7.7820 C   0  0  0  0  0  0  0  0  0  0  0  0
   25.4240   10.9650    7.3490 C   0  0  0  0  0  0  0  0  0  0  0  0
   26.8540   10.8840    6.9470 C   0  0  0  0  0  0  0  0  0  0  0  0
   27.9860   11.1110    7.7070 C   0  0  0  0  0  0  0  0  0  0  0  0
   29.0200   10.8570    6.8520 N   0  0  0  0  0  0  0  0  0  0  0  0
   30.6410   11.2190    7.1370 S   0  0  0  0  0  6  0  0  0  0  0  0
   31.0250   10.3590    8.2400 O   0  0  0  0  0  0  0  0  0  0  0  0
   31.2770   11.1230    5.8360 O   0  0  0  0  0  0  0  0  0  0  0  0
   30.6720   12.7770    7.6330 O   0  0  0  0  0  0  0  0  0  0  0  0
   29.7300   13.6500    7.2670 C   0  0  0  0  0  0  0  0  0  0  0  0
   29.5370   14.4440    6.1530 C   0  0  0  0  0  0  0  0  0  0  0  0
   28.3870   15.1840    6.2580 N   0  0  0  0  0  0  0  0  0  0  0  0
   27.8690   14.8600    7.4230 C   0  0  0  0  0  0  0  0  0  0  0  0
   26.6830   15.3040    8.0750 C   0  0  0  0  0  0  0  0  0  0  0  0
   26.3450   14.8070    9.2880 C   0  0  0  0  0  0  0  0  0  0  0  0
   25.1030   15.2920    9.9050 C   0  0  0  0  0  0  0  0  0  0  0  0
   23.8620   15.0730    9.2810 C   0  0  0  0  0  0  0  0  0  0  0  0
   22.6660   15.5540    9.8480 C   0  0  0  0  0  0  0  0  0  0  0  0
   22.6870   16.2630   11.0480 C   0  0  0  0  0  0  0  0  0  0  0  0
   23.9170   16.4640   11.6460 C   0  0  0  0  0  0  0  0  0  0  0  0
   25.1110   15.9960   11.1010 C   0  0  0  0  0  0  0  0  0  0  0  0
   26.2570   16.3930   11.9740 C   0  0  0  0  0  0  0  0  0  0  0  0
   25.5940   17.0500   13.0930 N   0  0  0  0  0  0  0  0  0  0  0  0
   26.3010   17.8390   14.0930 C   0  0  1  0  0  0  0  0  0  0  0  0
   26.4600   19.2990   13.6790 C   0  0  0  0  0  0  0  0  0  0  0  0
   27.2810   20.0350   14.7280 C   0  0  0  0  0  0  0  0  0  0  0  0
   26.6640   19.8990   16.1000 C   0  0  0  0  0  0  0  0  0  0  0  0
   26.6880   20.8060   16.9260 O   0  0  0  0  0  0  0  0  0  0  0  0
   26.0810   18.6920   16.3920 N   0  0  0  0  0  0  0  0  0  0  0  0
   25.6160   17.7830   15.4690 C   0  0  0  0  0  0  0  0  0  0  0  0
   24.7070   17.0090   15.7640 O   0  0  0  0  0  0  0  0  0  0  0  0
   24.2280   17.1760   12.8900 C   0  0  0  0  0  0  0  0  0  0  0  0
   23.4180   17.7590   13.5840 O   0  0  0  0  0  0  0  0  0  0  0  0
   27.1990   13.8140    9.9440 C   0  0  0  0  0  0  0  0  0  0  0  0
   28.3220   13.3970    9.3340 C   0  0  0  0  0  0  0  0  0  0  0  0
   28.6510   13.9180    8.0840 N   0  0  0  0  0  0  0  0  0  0  0  0
   28.5200   10.5770    5.6210 C   0  0  0  0  0  0  0  0  0  0  0  0
   27.2030   10.5630    5.6500 N   0  0  0  0  0  0  0  0  0  0  0  0
   24.8497    9.5640    8.8806 H   0  0  0  0  0  0  0  0  0  0  0  0
   23.8507    9.4948    7.3893 H   0  0  0  0  0  0  0  0  0  0  0  0
   25.5127    8.8135    7.3893 H   0  0  0  0  0  0  0  0  0  0  0  0
   24.8361   11.3309    6.4943 H   0  0  0  0  0  0  0  0  0  0  0  0
   25.3529   11.6499    8.2068 H   0  0  0  0  0  0  0  0  0  0  0  0
   28.0413   11.4246    8.7599 H   0  0  0  0  0  0  0  0  0  0  0  0
   30.2193   14.4783    5.2909 H   0  0  0  0  0  0  0  0  0  0  0  0
   26.0394   16.0534    7.5911 H   0  0  0  0  0  0  0  0  0  0  0  0
   23.8248   14.5161    8.3331 H   0  0  0  0  0  0  0  0  0  0  0  0
   21.7080   15.3688    9.3401 H   0  0  0  0  0  0  0  0  0  0  0  0
   21.7613   16.6474   11.5012 H   0  0  0  0  0  0  0  0  0  0  0  0
   26.8234   15.5120   12.3102 H   0  0  0  0  0  0  0  0  0  0  0  0
   26.9924   17.0334   11.4650 H   0  0  0  0  0  0  0  0  0  0  0  0
   27.2985   17.3817   14.1692 H   0  0  0  0  0  0  0  0  0  0  0  0
   26.9737   19.3513   12.7077 H   0  0  0  0  0  0  0  0  0  0  0  0
   25.4682   19.7670   13.5937 H   0  0  0  0  0  0  0  0  0  0  0  0
   28.2971   19.6141   14.7484 H   0  0  0  0  0  0  0  0  0  0  0  0
   27.3080   21.1022   14.4629 H   0  0  0  0  0  0  0  0  0  0  0  0
   25.9829   18.4449   17.3871 H   0  0  0  0  0  0  0  0  0  0  0  0
   26.9230   13.4119   10.9300 H   0  0  0  0  0  0  0  0  0  0  0  0
   28.9736   12.6532    9.8159 H   0  0  0  0  0  0  0  0  0  0  0  0
   29.1294   10.3883    4.7249 H   0  0  0  0  0  0  0  0  0  0  0  0
  1  2  1  0
  2  3  1  0
  3  4  2  0
  4  5  1  0
  5  6  1  0
  6  7  2  0
  6  8  2  0
  6  9  1  0
  9 10  1  0
 10 11  2  0
 11 12  1  0
 12 13  2  0
 13 14  1  0
 14 15  2  0
 15 16  1  0
 16 17  2  0
 17 18  1  0
 18 19  2  0
 19 20  1  0
 20 21  2  0
 21 22  1  0
 22 23  1  0
 23 24  1  0
 24 25  1  0
 25 26  1  0
 26 27  1  0
 27 28  2  0
 27 29  1  0
 29 30  1  0
 30 31  2  0
 23 32  1  0
 32 33  2  0
 15 34  1  0
 34 35  2  0
 35 36  1  0
  5 37  1  0
 37 38  2  0
 38  3  1  0
 36 10  1  0
 36 13  1  0
 21 16  1  0
 30 24  1  0
 32 20  1  0
  1 39  1  0
  1 40  1  0
  1 41  1  0
  2 42  1  0
  2 43  1  0
  4 44  1  0
 11 45  1  0
 14 46  1  0
 17 47  1  0
 18 48  1  0
 19 49  1  0
 22 50  1  0
 22 51  1  0
 24 52  1  1
 25 53  1  0
 25 54  1  0
 26 55  1  0
 26 56  1  0
 29 57  1  0
 34 58  1  0
 35 59  1  0
 37 60  1  0
M  END
>  <meeko>  (404) 
{"is_sidechain": [true], "free_energy": -12.71, "intermolecular_energy": 0.0, "internal_energy": -12.71, "cluster_size": 16, "cluster_id": 1, "rank_in_cluster": 1}

>  <_RMSD_MCS_to_ref>  (404) 
1.798738554901431

$$$$
ligand
     RDKit          3D

 59 64  0  0  0  0  0  0  0  0999 V2000
   24.8710    9.6160    7.7820 C   0  0  0  0  0  0  0  0  0  0  0  0
   25.4240   10.9650    7.3490 C   0  0  0  0  0  0  0  0  0  0  0  0
   24.9910   11.3350    5.9750 C   0  0  0  0  0  0  0  0  0  0  0  0
   24.4730   12.5320    5.5190 C   0  0  0  0  0  0  0  0  0  0  0  0
   24.2750   12.3230    4.1830 N   0  0  0  0  0  0  0  0  0  0  0  0
   23.4410   13.3600    3.1520 S   0  0  0  0  0  6  0  0  0  0  0  0
   22.1130   13.4260    3.7380 O   0  0  0  0  0  0  0  0  0  0  0  0
   23.6230   12.8320    1.8120 O   0  0  0  0  0  0  0  0  0  0  0  0
   24.1030   14.8500    3.2790 O   0  0  0  0  0  0  0  0  0  0  0  0
   25.4100   15.0410    3.6670 C   0  0  0  0  0  0  0  0  0  0  0  0
   26.4230   15.0010    2.7800 C   0  0  0  0  0  0  0  0  0  0  0  0
   27.8030   15.2110    3.1890 C   0  0  0  0  0  0  0  0  0  0  0  0
   28.0630   15.4700    4.4820 C   0  0  0  0  0  0  0  0  0  0  0  0
   27.0060   15.5410    5.3870 N   0  0  0  0  0  0  0  0  0  0  0  0
   27.0290   15.8040    6.7320 C   0  0  0  0  0  0  0  0  0  0  0  0
   25.7110   15.7840    7.1410 C   0  0  0  0  0  0  0  0  0  0  0  0
   25.2270   16.0160    8.4950 C   0  0  0  0  0  0  0  0  0  0  0  0
   24.0660   15.3330    8.9410 C   0  0  0  0  0  0  0  0  0  0  0  0
   23.5590   15.5000   10.2360 C   0  0  0  0  0  0  0  0  0  0  0  0
   24.2340   16.3680   11.0660 C   0  0  0  0  0  0  0  0  0  0  0  0
   25.3620   17.0440   10.6440 C   0  0  0  0  0  0  0  0  0  0  0  0
   25.8870   16.8900    9.3730 C   0  0  0  0  0  0  0  0  0  0  0  0
   25.8260   17.8640   11.7600 C   0  0  0  0  0  0  0  0  0  0  0  0
   26.8280   18.5530   11.7260 O   0  0  0  0  0  0  0  0  0  0  0  0
   24.9380   17.6760   12.7830 N   0  0  0  0  0  0  0  0  0  0  0  0
   25.0940   18.1990   14.1320 C   0  0  2  0  0  0  0  0  0  0  0  0
   25.8780   19.5060   14.2110 C   0  0  0  0  0  0  0  0  0  0  0  0
   25.9380   19.9660   15.6600 C   0  0  0  0  0  0  0  0  0  0  0  0
   26.5410   18.9020   16.5490 C   0  0  0  0  0  0  0  0  0  0  0  0
   27.1500   19.1760   17.5790 O   0  0  0  0  0  0  0  0  0  0  0  0
   26.3270   17.5980   16.1780 N   0  0  0  0  0  0  0  0  0  0  0  0
   25.7520   17.1340   15.0160 C   0  0  0  0  0  0  0  0  0  0  0  0
   25.7390   15.9300   14.7640 O   0  0  0  0  0  0  0  0  0  0  0  0
   23.9760   16.7600   12.4500 C   0  0  0  0  0  0  0  0  0  0  0  0
   23.0610   16.3370   13.1290 O   0  0  0  0  0  0  0  0  0  0  0  0
   24.8780   15.5210    6.0720 N   0  0  0  0  0  0  0  0  0  0  0  0
   25.6740   15.3530    5.0350 C   0  0  0  0  0  0  0  0  0  0  0  0
   24.5900   11.0370    3.8820 C   0  0  0  0  0  0  0  0  0  0  0  0
   25.0650   10.4180    4.9440 N   0  0  0  0  0  0  0  0  0  0  0  0
   24.8497    9.5640    8.8806 H   0  0  0  0  0  0  0  0  0  0  0  0
   23.8507    9.4948    7.3893 H   0  0  0  0  0  0  0  0  0  0  0  0
   25.5127    8.8135    7.3893 H   0  0  0  0  0  0  0  0  0  0  0  0
   25.0706   11.7346    8.0511 H   0  0  0  0  0  0  0  0  0  0  0  0
   26.5218   10.8959    7.3500 H   0  0  0  0  0  0  0  0  0  0  0  0
   24.2672   13.4441    6.0984 H   0  0  0  0  0  0  0  0  0  0  0  0
   26.2012   14.8048    1.7206 H   0  0  0  0  0  0  0  0  0  0  0  0
   28.6191   15.1588    2.4533 H   0  0  0  0  0  0  0  0  0  0  0  0
   29.0978   15.6241    4.8216 H   0  0  0  0  0  0  0  0  0  0  0  0
   27.9149   15.9921    7.3564 H   0  0  0  0  0  0  0  0  0  0  0  0
   23.5487   14.6521    8.2491 H   0  0  0  0  0  0  0  0  0  0  0  0
   22.6616   14.9619   10.5753 H   0  0  0  0  0  0  0  0  0  0  0  0
   26.7908   17.4340    9.0613 H   0  0  0  0  0  0  0  0  0  0  0  0
   24.0829   18.4384   14.4930 H   0  0  0  0  0  0  0  0  0  0  0  0
   26.8986   19.3463   13.8330 H   0  0  0  0  0  0  0  0  0  0  0  0
   25.3803   20.2733   13.5998 H   0  0  0  0  0  0  0  0  0  0  0  0
   26.5531   20.8758   15.7221 H   0  0  0  0  0  0  0  0  0  0  0  0
   24.9124   20.1658   16.0039 H   0  0  0  0  0  0  0  0  0  0  0  0
   26.6335   16.8799   16.8498 H   0  0  0  0  0  0  0  0  0  0  0  0
   24.4661   10.5765    2.8908 H   0  0  0  0  0  0  0  0  0  0  0  0
  1  2  1  0
  2  3  1  0
  3  4  2  0
  4  5  1  0
  5  6  1  0
  6  7  2  0
  6  8  2  0
  6  9  1  0
  9 10  1  0
 10 11  2  0
 11 12  1  0
 12 13  2  0
 13 14  1  0
 14 15  1  0
 15 16  2  0
 16 17  1  0
 17 18  2  0
 18 19  1  0
 19 20  2  0
 20 21  1  0
 21 22  2  0
 21 23  1  0
 23 24  2  0
 23 25  1  0
 25 26  1  0
 26 27  1  0
 27 28  1  0
 28 29  1  0
 29 30  2  0
 29 31  1  0
 31 32  1  0
 32 33  2  0
 25 34  1  0
 34 35  2  0
 16 36  1  0
 36 37  2  0
  5 38  1  0
 38 39  2  0
 39  3  1  0
 37 10  1  0
 37 14  1  0
 22 17  1  0
 32 26  1  0
 34 20  1  0
  1 40  1  0
  1 41  1  0
  1 42  1  0
  2 43  1  0
  2 44  1  0
  4 45  1  0
 11 46  1  0
 12 47  1  0
 13 48  1  0
 15 49  1  0
 18 50  1  0
 19 51  1  0
 22 52  1  0
 26 53  1  1
 27 54  1  0
 27 55  1  0
 28 56  1  0
 28 57  1  0
 31 58  1  0
 38 59  1  0
M  END
>  <meeko>  (405) 
{"is_sidechain": [true], "free_energy": -12.71, "intermolecular_energy": 0.0, "internal_energy": -12.71, "cluster_size": 4, "cluster_id": 2, "rank_in_cluster": 1}

>  <_RMSD_MCS_to_ref>  (405) 
1.67640148752273

$$$$
ligand
     RDKit          3D

 57 61  0  0  0  0  0  0  0  0999 V2000
   24.8540    9.4020    7.6050 C   0  0  0  0  0  0  0  0  0  0  0  0
   25.5230   10.7550    7.4270 C   0  0  0  0  0  0  0  0  0  0  0  0
   27.0010   10.6760    7.5820 C   0  0  0  0  0  0  0  0  0  0  0  0
   27.9180   11.7020    7.7010 C   0  0  0  0  0  0  0  0  0  0  0  0
   29.1200   11.0660    7.8280 N   0  0  0  0  0  0  0  0  0  0  0  0
   30.6310   11.8040    7.7490 S   0  0  0  0  0  6  0  0  0  0  0  0
   30.8820   12.0610    6.3450 O   0  0  0  0  0  0  0  0  0  0  0  0
   31.4950   10.9710    8.5620 O   0  0  0  0  0  0  0  0  0  0  0  0
   30.3920   13.3570    8.5650 C   0  0  0  0  0  0  0  0  0  0  0  0
   31.3940   13.8640    9.3930 C   0  0  0  0  0  0  0  0  0  0  0  0
   31.1750   15.0670   10.0580 C   0  0  0  0  0  0  0  0  0  0  0  0
   29.9610   15.7440    9.9010 C   0  0  0  0  0  0  0  0  0  0  0  0
   28.9520   15.2470    9.0640 C   0  0  0  0  0  0  0  0  0  0  0  0
   27.7270   15.9320    8.9980 N   0  0  0  0  0  0  0  0  0  0  0  0
   26.4100   15.5380    9.2760 C   0  0  0  0  0  0  0  0  0  0  0  0
   25.6850   14.6270    8.4900 C   0  0  0  0  0  0  0  0  0  0  0  0
   24.3440   14.2860    8.7850 C   0  0  0  0  0  0  0  0  0  0  0  0
   23.6900   14.8400    9.8850 C   0  0  0  0  0  0  0  0  0  0  0  0
   24.4130   15.7230   10.6600 C   0  0  0  0  0  0  0  0  0  0  0  0
   25.7250   16.0550   10.3670 C   0  0  0  0  0  0  0  0  0  0  0  0
   26.1720   16.9900   11.3990 C   0  0  0  0  0  0  0  0  0  0  0  0
   27.3020   17.4390   11.4670 O   0  0  0  0  0  0  0  0  0  0  0  0
   25.1040   17.2180   12.2230 N   0  0  0  0  0  0  0  0  0  0  0  0
   25.2110   17.9840   13.4570 C   0  0  1  0  0  0  0  0  0  0  0  0
   25.9350   17.2580   14.5870 C   0  0  0  0  0  0  0  0  0  0  0  0
   25.9480   18.1450   15.8230 C   0  0  0  0  0  0  0  0  0  0  0  0
   26.5790   19.4870   15.5310 C   0  0  0  0  0  0  0  0  0  0  0  0
   27.1380   20.1520   16.3980 O   0  0  0  0  0  0  0  0  0  0  0  0
   26.4470   19.9630   14.2490 N   0  0  0  0  0  0  0  0  0  0  0  0
   25.8980   19.3220   13.1610 C   0  0  0  0  0  0  0  0  0  0  0  0
   25.9210   19.8480   12.0510 O   0  0  0  0  0  0  0  0  0  0  0  0
   24.0310   16.4480   11.8700 C   0  0  0  0  0  0  0  0  0  0  0  0
   22.9560   16.3280   12.4250 O   0  0  0  0  0  0  0  0  0  0  0  0
   29.1880   14.0490    8.3870 C   0  0  0  0  0  0  0  0  0  0  0  0
   28.9200    9.7240    7.7640 C   0  0  0  0  0  0  0  0  0  0  0  0
   27.6410    9.4520    7.6060 N   0  0  0  0  0  0  0  0  0  0  0  0
   24.7464    9.1845    8.6779 H   0  0  0  0  0  0  0  0  0  0  0  0
   23.8606    9.4192    7.1330 H   0  0  0  0  0  0  0  0  0  0  0  0
   25.4708    8.6230    7.1330 H   0  0  0  0  0  0  0  0  0  0  0  0
   25.2921   11.1347    6.4208 H   0  0  0  0  0  0  0  0  0  0  0  0
   25.1371   11.4278    8.2070 H   0  0  0  0  0  0  0  0  0  0  0  0
   27.7243   12.7848    7.6949 H   0  0  0  0  0  0  0  0  0  0  0  0
   32.3426   13.3213    9.5183 H   0  0  0  0  0  0  0  0  0  0  0  0
   31.9575   15.4859   10.7078 H   0  0  0  0  0  0  0  0  0  0  0  0
   29.7946   16.6853   10.4452 H   0  0  0  0  0  0  0  0  0  0  0  0
   27.8125   16.9099    8.6860 H   0  0  0  0  0  0  0  0  0  0  0  0
   26.1742   14.1653    7.6197 H   0  0  0  0  0  0  0  0  0  0  0  0
   23.8101   13.5744    8.1380 H   0  0  0  0  0  0  0  0  0  0  0  0
   22.6469   14.5850   10.1235 H   0  0  0  0  0  0  0  0  0  0  0  0
   24.1842   18.1399   13.8195 H   0  0  0  0  0  0  0  0  0  0  0  0
   25.4122   16.3173   14.8145 H   0  0  0  0  0  0  0  0  0  0  0  0
   26.9677   17.0346   14.2812 H   0  0  0  0  0  0  0  0  0  0  0  0
   24.9134   18.3020   16.1620 H   0  0  0  0  0  0  0  0  0  0  0  0
   26.5419   17.6449   16.6022 H   0  0  0  0  0  0  0  0  0  0  0  0
   26.8019   20.9153   14.0813 H   0  0  0  0  0  0  0  0  0  0  0  0
   28.4220   13.6456    7.7084 H   0  0  0  0  0  0  0  0  0  0  0  0
   29.7164    8.9685    7.8344 H   0  0  0  0  0  0  0  0  0  0  0  0
  1  2  1  0
  2  3  1  0
  3  4  2  0
  4  5  1  0
  5  6  1  0
  6  7  2  0
  6  8  2  0
  6  9  1  0
  9 10  2  0
 10 11  1  0
 11 12  2  0
 12 13  1  0
 13 14  1  0
 14 15  1  0
 15 16  2  0
 16 17  1  0
 17 18  2  0
 18 19  1  0
 19 20  2  0
 20 21  1  0
 21 22  2  0
 21 23  1  0
 23 24  1  0
 24 25  1  0
 25 26  1  0
 26 27  1  0
 27 28  2  0
 27 29  1  0
 29 30  1  0
 30 31  2  0
 23 32  1  0
 32 33  2  0
 13 34  2  0
  5 35  1  0
 35 36  2  0
 36  3  1  0
 34  9  1  0
 20 15  1  0
 30 24  1  0
 32 19  1  0
  1 37  1  0
  1 38  1  0
  1 39  1  0
  2 40  1  0
  2 41  1  0
  4 42  1  0
 10 43  1  0
 11 44  1  0
 12 45  1  0
 14 46  1  0
 16 47  1  0
 17 48  1  0
 18 49  1  0
 24 50  1  1
 25 51  1  0
 25 52  1  0
 26 53  1  0
 26 54  1  0
 29 55  1  0
 34 56  1  0
 35 57  1  0
M  END
>  <meeko>  (406) 
{"is_sidechain": [true], "free_energy": -12.7, "intermolecular_energy": 0.0, "internal_energy": -12.7, "cluster_size": 20, "cluster_id": 1, "rank_in_cluster": 1}

>  <_RMSD_MCS_to_ref>  (406) 
1.3976432941840977

$$$$
ligand
     RDKit          3D

 58 62  0  0  0  0  0  0  0  0999 V2000
   24.8710    9.6160    7.7820 C   0  0  0  0  0  0  0  0  0  0  0  0
   25.4240   10.9650    7.3490 C   0  0  0  0  0  0  0  0  0  0  0  0
   26.6240   11.3580    8.1380 C   0  0  0  0  0  0  0  0  0  0  0  0
   27.8270   11.8700    7.6940 C   0  0  0  0  0  0  0  0  0  0  0  0
   28.5660   12.0240    8.8320 N   0  0  0  0  0  0  0  0  0  0  0  0
   30.0420   12.8020    8.9410 S   0  0  0  0  0  6  0  0  0  0  0  0
   29.9840   13.6590   10.1050 O   0  0  0  0  0  0  0  0  0  0  0  0
   31.0630   11.7840    8.7680 O   0  0  0  0  0  0  0  0  0  0  0  0
   30.2900   13.8680    7.6110 C   0  0  0  0  0  0  0  0  0  0  0  0
   31.5390   14.0700    6.9630 C   0  0  0  0  0  0  0  0  0  0  0  0
   31.3180   14.9330    5.9170 C   0  0  0  0  0  0  0  0  0  0  0  0
   29.9870   15.2440    5.9040 N   0  0  0  0  0  0  0  0  0  0  0  0
   29.3290   14.6370    6.9600 C   0  0  0  0  0  0  0  0  0  0  0  0
   27.8990   14.8580    7.1280 C   0  0  0  0  0  0  0  0  0  0  0  0
   27.2500   15.2800    6.1760 O   0  0  0  0  0  0  0  0  0  0  0  0
   27.3860   14.6340    8.3910 N   0  0  0  0  0  0  0  0  0  0  0  0
   26.0410   14.7660    8.8100 C   0  0  0  0  0  0  0  0  0  0  0  0
   24.9460   14.2420    8.1050 C   0  0  0  0  0  0  0  0  0  0  0  0
   23.6200   14.4210    8.5550 C   0  0  0  0  0  0  0  0  0  0  0  0
   23.3570   15.1270    9.7250 C   0  0  0  0  0  0  0  0  0  0  0  0
   24.4440   15.6210   10.4150 C   0  0  0  0  0  0  0  0  0  0  0  0
   25.7650   15.4500    9.9880 C   0  0  0  0  0  0  0  0  0  0  0  0
   26.6810   16.1120   10.9660 C   0  0  0  0  0  0  0  0  0  0  0  0
   25.7780   16.5860   12.0050 N   0  0  0  0  0  0  0  0  0  0  0  0
   26.2400   17.4840   13.0560 C   0  0  2  0  0  0  0  0  0  0  0  0
   25.5090   17.3040   14.3880 C   0  0  0  0  0  0  0  0  0  0  0  0
   26.1110   18.2420   15.4230 C   0  0  0  0  0  0  0  0  0  0  0  0
   26.0590   19.6780   14.9580 C   0  0  0  0  0  0  0  0  0  0  0  0
   26.0990   20.6220   15.7420 O   0  0  0  0  0  0  0  0  0  0  0  0
   26.0530   19.8880   13.6020 N   0  0  0  0  0  0  0  0  0  0  0  0
   26.1780   18.9510   12.6020 C   0  0  0  0  0  0  0  0  0  0  0  0
   26.3400   19.3060   11.4350 O   0  0  0  0  0  0  0  0  0  0  0  0
   24.4510   16.3940   11.6620 C   0  0  0  0  0  0  0  0  0  0  0  0
   23.4570   16.7840   12.2400 O   0  0  0  0  0  0  0  0  0  0  0  0
   27.8110   11.6730    9.9050 C   0  0  0  0  0  0  0  0  0  0  0  0
   26.6270   11.2510    9.5150 N   0  0  0  0  0  0  0  0  0  0  0  0
   24.8497    9.5640    8.8806 H   0  0  0  0  0  0  0  0  0  0  0  0
   23.8507    9.4948    7.3893 H   0  0  0  0  0  0  0  0  0  0  0  0
   25.5127    8.8135    7.3893 H   0  0  0  0  0  0  0  0  0  0  0  0
   25.7010   10.9101    6.2859 H   0  0  0  0  0  0  0  0  0  0  0  0
   24.6438   11.7214    7.5197 H   0  0  0  0  0  0  0  0  0  0  0  0
   28.1226   12.1010    6.6600 H   0  0  0  0  0  0  0  0  0  0  0  0
   32.5019   13.6198    7.2460 H   0  0  0  0  0  0  0  0  0  0  0  0
   32.0774   15.3072    5.2147 H   0  0  0  0  0  0  0  0  0  0  0  0
   29.5347   15.8483    5.2032 H   0  0  0  0  0  0  0  0  0  0  0  0
   28.0603   14.3366    9.1106 H   0  0  0  0  0  0  0  0  0  0  0  0
   25.1258   13.6775    7.1782 H   0  0  0  0  0  0  0  0  0  0  0  0
   22.7864   13.9982    7.9751 H   0  0  0  0  0  0  0  0  0  0  0  0
   22.3288   15.2839   10.0832 H   0  0  0  0  0  0  0  0  0  0  0  0
   27.4076   15.3937   11.3734 H   0  0  0  0  0  0  0  0  0  0  0  0
   27.2799   16.9178   10.5165 H   0  0  0  0  0  0  0  0  0  0  0  0
   27.2886   17.2068   13.2392 H   0  0  0  0  0  0  0  0  0  0  0  0
   24.4423   17.5382   14.2563 H   0  0  0  0  0  0  0  0  0  0  0  0
   25.6146   16.2633   14.7284 H   0  0  0  0  0  0  0  0  0  0  0  0
   25.5464   18.1489   16.3624 H   0  0  0  0  0  0  0  0  0  0  0  0
   27.1645   17.9635   15.5730 H   0  0  0  0  0  0  0  0  0  0  0  0
   25.9415   20.8650   13.2956 H   0  0  0  0  0  0  0  0  0  0  0  0
   28.1423   11.7330   10.9522 H   0  0  0  0  0  0  0  0  0  0  0  0
  1  2  1  0
  2  3  1  0
  3  4  2  0
  4  5  1  0
  5  6  1  0
  6  7  2  0
  6  8  2  0
  6  9  1  0
  9 10  1  0
 10 11  2  0
 11 12  1  0
 12 13  1  0
 13 14  1  0
 14 15  2  0
 14 16  1  0
 16 17  1  0
 17 18  2  0
 18 19  1  0
 19 20  2  0
 20 21  1  0
 21 22  2  0
 22 23  1  0
 23 24  1  0
 24 25  1  0
 25 26  1  0
 26 27  1  0
 27 28  1  0
 28 29  2  0
 28 30  1  0
 30 31  1  0
 31 32  2  0
 24 33  1  0
 33 34  2  0
  5 35  1  0
 35 36  2  0
 36  3  1  0
 13  9  2  0
 22 17  1  0
 31 25  1  0
 33 21  1  0
  1 37  1  0
  1 38  1  0
  1 39  1  0
  2 40  1  0
  2 41  1  0
  4 42  1  0
 10 43  1  0
 11 44  1  0
 12 45  1  0
 16 46  1  0
 18 47  1  0
 19 48  1  0
 20 49  1  0
 23 50  1  0
 23 51  1  0
 25 52  1  1
 26 53  1  0
 26 54  1  0
 27 55  1  0
 27 56  1  0
 30 57  1  0
 35 58  1  0
M  END
>  <meeko>  (407) 
{"is_sidechain": [true], "free_energy": -12.7, "intermolecular_energy": 0.0, "internal_energy": -12.7, "cluster_size": 20, "cluster_id": 1, "rank_in_cluster": 1}

>  <_RMSD_MCS_to_ref>  (407) 
1.7979685295725651

$$$$
ligand
     RDKit          3D

 62 67  0  0  0  0  0  0  0  0999 V2000
   24.8710    9.6170    7.7820 C   0  0  0  0  0  0  0  0  0  0  0  0
   25.4240   10.9640    7.3490 C   0  0  0  0  0  0  0  0  0  0  0  0
   25.6010   11.0510    5.8730 C   0  0  0  0  0  0  0  0  0  0  0  0
   26.7240   11.4120    5.1550 C   0  0  0  0  0  0  0  0  0  0  0  0
   26.3290   11.3290    3.8500 N   0  0  0  0  0  0  0  0  0  0  0  0
   27.1690   11.9470    2.5200 S   0  0  0  0  0  6  0  0  0  0  0  0
   26.4050   11.4940    1.3730 O   0  0  0  0  0  0  0  0  0  0  0  0
   28.5440   11.5260    2.7160 O   0  0  0  0  0  0  0  0  0  0  0  0
   27.0710   13.5830    2.5780 O   0  0  0  0  0  0  0  0  0  0  0  0
   27.7310   14.2530    3.5800 C   0  0  0  0  0  0  0  0  0  0  0  0
   29.0710   14.5910    3.4040 C   0  0  0  0  0  0  0  0  0  0  0  0
   29.7480   15.2380    4.4300 C   0  0  0  0  0  0  0  0  0  0  0  0
   29.0780   15.5480    5.6160 C   0  0  0  0  0  0  0  0  0  0  0  0
   27.7350   15.2450    5.8020 C   0  0  0  0  0  0  0  0  0  0  0  0
   27.1570   15.5660    6.9710 N   0  0  0  0  0  0  0  0  0  0  0  0
   25.8480   15.2730    7.1730 C   0  0  0  0  0  0  0  0  0  0  0  0
   25.3070   15.6350    8.4990 C   0  0  0  0  0  0  0  0  0  0  0  0
   24.0910   15.0570    8.9560 C   0  0  0  0  0  0  0  0  0  0  0  0
   23.5450   15.3690   10.2050 C   0  0  0  0  0  0  0  0  0  0  0  0
   24.2310   16.2740   10.9860 C   0  0  0  0  0  0  0  0  0  0  0  0
   25.4190   16.8700   10.5730 C   0  0  0  0  0  0  0  0  0  0  0  0
   25.9670   16.5600    9.3380 C   0  0  0  0  0  0  0  0  0  0  0  0
   25.9210   17.7950   11.6320 C   0  0  0  0  0  0  0  0  0  0  0  0
   24.8670   17.7300   12.6360 N   0  0  0  0  0  0  0  0  0  0  0  0
   25.0040   18.2720   13.9820 C   0  0  2  0  0  0  0  0  0  0  0  0
   25.9190   19.4920   14.0300 C   0  0  0  0  0  0  0  0  0  0  0  0
   25.9390   20.0530   15.4450 C   0  0  0  0  0  0  0  0  0  0  0  0
   26.3490   18.9980   16.4450 C   0  0  0  0  0  0  0  0  0  0  0  0
   27.0330   19.2570   17.4300 O   0  0  0  0  0  0  0  0  0  0  0  0
   25.9030   17.7230   16.2080 N   0  0  0  0  0  0  0  0  0  0  0  0
   25.5170   17.2240   14.9850 C   0  0  0  0  0  0  0  0  0  0  0  0
   25.6080   16.0210   14.7500 O   0  0  0  0  0  0  0  0  0  0  0  0
   23.9020   16.7850   12.3200 C   0  0  0  0  0  0  0  0  0  0  0  0
   22.9570   16.4270   12.9950 O   0  0  0  0  0  0  0  0  0  0  0  0
   25.0760   14.6750    6.1830 C   0  0  0  0  0  0  0  0  0  0  0  0
   25.6730   14.3460    4.9700 C   0  0  0  0  0  0  0  0  0  0  0  0
   27.0380   14.6060    4.7590 C   0  0  0  0  0  0  0  0  0  0  0  0
   25.0210   10.9640    3.8050 C   0  0  0  0  0  0  0  0  0  0  0  0
   24.5500   10.7760    5.0200 N   0  0  0  0  0  0  0  0  0  0  0  0
   24.8498    9.5653    8.8806 H   0  0  0  0  0  0  0  0  0  0  0  0
   23.8505    9.4962    7.3895 H   0  0  0  0  0  0  0  0  0  0  0  0
   25.5122    8.8140    7.3895 H   0  0  0  0  0  0  0  0  0  0  0  0
   24.7272   11.7526    7.6694 H   0  0  0  0  0  0  0  0  0  0  0  0
   26.4122   11.0893    7.8157 H   0  0  0  0  0  0  0  0  0  0  0  0
   27.7113   11.7005    5.5449 H   0  0  0  0  0  0  0  0  0  0  0  0
   29.5870   14.3483    2.4634 H   0  0  0  0  0  0  0  0  0  0  0  0
   30.8081   15.5054    4.3090 H   0  0  0  0  0  0  0  0  0  0  0  0
   29.6300   16.0466    6.4264 H   0  0  0  0  0  0  0  0  0  0  0  0
   23.5635   14.3424    8.3071 H   0  0  0  0  0  0  0  0  0  0  0  0
   22.6064   14.9109   10.5501 H   0  0  0  0  0  0  0  0  0  0  0  0
   26.9073   17.0301    9.0143 H   0  0  0  0  0  0  0  0  0  0  0  0
   26.8810   17.4469   12.0409 H   0  0  0  0  0  0  0  0  0  0  0  0
   26.1152   18.8142   11.2667 H   0  0  0  0  0  0  0  0  0  0  0  0
   23.9884   18.5787   14.2727 H   0  0  0  0  0  0  0  0  0  0  0  0
   26.9378   19.1985   13.7370 H   0  0  0  0  0  0  0  0  0  0  0  0
   25.5457   20.2591   13.3356 H   0  0  0  0  0  0  0  0  0  0  0  0
   26.6543   20.8874   15.4901 H   0  0  0  0  0  0  0  0  0  0  0  0
   24.9252   20.3972   15.6976 H   0  0  0  0  0  0  0  0  0  0  0  0
   25.8526   17.0842   17.0144 H   0  0  0  0  0  0  0  0  0  0  0  0
   24.0101   14.4654    6.3561 H   0  0  0  0  0  0  0  0  0  0  0  0
   25.0743   13.8806    4.1731 H   0  0  0  0  0  0  0  0  0  0  0  0
   24.4364   10.8424    2.8812 H   0  0  0  0  0  0  0  0  0  0  0  0
  1  2  1  0
  2  3  1  0
  3  4  2  0
  4  5  1  0
  5  6  1  0
  6  7  2  0
  6  8  2  0
  6  9  1  0
  9 10  1  0
 10 11  2  0
 11 12  1  0
 12 13  2  0
 13 14  1  0
 14 15  2  0
 15 16  1  0
 16 17  1  0
 17 18  2  0
 18 19  1  0
 19 20  2  0
 20 21  1  0
 21 22  2  0
 21 23  1  0
 23 24  1  0
 24 25  1  0
 25 26  1  0
 26 27  1  0
 27 28  1  0
 28 29  2  0
 28 30  1  0
 30 31  1  0
 31 32  2  0
 24 33  1  0
 33 34  2  0
 16 35  2  0
 35 36  1  0
 36 37  2  0
  5 38  1  0
 38 39  2  0
 39  3  1  0
 37 10  1  0
 37 14  1  0
 22 17  1  0
 31 25  1  0
 33 20  1  0
  1 40  1  0
  1 41  1  0
  1 42  1  0
  2 43  1  0
  2 44  1  0
  4 45  1  0
 11 46  1  0
 12 47  1  0
 13 48  1  0
 18 49  1  0
 19 50  1  0
 22 51  1  0
 23 52  1  0
 23 53  1  0
 25 54  1  1
 26 55  1  0
 26 56  1  0
 27 57  1  0
 27 58  1  0
 30 59  1  0
 35 60  1  0
 36 61  1  0
 38 62  1  0
M  END
>  <meeko>  (408) 
{"is_sidechain": [true], "free_energy": -12.7, "intermolecular_energy": 0.0, "internal_energy": -12.7, "cluster_size": 20, "cluster_id": 1, "rank_in_cluster": 1}

>  <_RMSD_MCS_to_ref>  (408) 
1.6595638456819723

$$$$
ligand
     RDKit          3D

 55 59  0  0  0  0  0  0  0  0999 V2000
   24.8540    9.4020    7.6050 C   0  0  0  0  0  0  0  0  0  0  0  0
   25.5230   10.7550    7.4270 C   0  0  0  0  0  0  0  0  0  0  0  0
   27.0040   10.6710    7.5510 C   0  0  0  0  0  0  0  0  0  0  0  0
   27.9330   11.6940    7.5580 C   0  0  0  0  0  0  0  0  0  0  0  0
   29.1320   11.0510    7.6830 N   0  0  0  0  0  0  0  0  0  0  0  0
   30.6400   11.7980    7.7770 S   0  0  0  0  0  6  0  0  0  0  0  0
   31.5040   10.8860    8.5070 O   0  0  0  0  0  0  0  0  0  0  0  0
   30.9380   12.1400    6.3970 O   0  0  0  0  0  0  0  0  0  0  0  0
   30.5020   13.1970    8.5950 O   0  0  0  0  0  0  0  0  0  0  0  0
   29.2590   13.6880    8.8840 C   0  0  0  0  0  0  0  0  0  0  0  0
   28.6130   13.2290   10.0190 C   0  0  0  0  0  0  0  0  0  0  0  0
   27.4010   13.6960   10.4100 N   0  0  0  0  0  0  0  0  0  0  0  0
   26.8360   14.6530    9.6250 C   0  0  0  0  0  0  0  0  0  0  0  0
   25.5130   15.1540   10.0390 C   0  0  0  0  0  0  0  0  0  0  0  0
   24.3580   14.9460    9.2480 C   0  0  0  0  0  0  0  0  0  0  0  0
   23.0900   15.4450    9.6150 C   0  0  0  0  0  0  0  0  0  0  0  0
   22.9320   16.1720   10.7900 C   0  0  0  0  0  0  0  0  0  0  0  0
   24.0550   16.3590   11.5690 C   0  0  0  0  0  0  0  0  0  0  0  0
   25.3160   15.8640   11.2250 C   0  0  0  0  0  0  0  0  0  0  0  0
   26.3010   16.2620   12.2790 C   0  0  0  0  0  0  0  0  0  0  0  0
   25.4760   16.9520   13.2630 N   0  0  0  0  0  0  0  0  0  0  0  0
   26.0750   17.7070   14.3570 C   0  0  2  0  0  0  0  0  0  0  0  0
   25.1360   17.9260   15.5420 C   0  0  0  0  0  0  0  0  0  0  0  0
   25.8790   18.6650   16.6440 C   0  0  0  0  0  0  0  0  0  0  0  0
   26.4430   19.9740   16.1420 C   0  0  0  0  0  0  0  0  0  0  0  0
   26.7050   20.9050   16.8960 O   0  0  0  0  0  0  0  0  0  0  0  0
   26.7330   20.0460   14.8020 N   0  0  0  0  0  0  0  0  0  0  0  0
   26.6400   19.0470   13.8600 C   0  0  0  0  0  0  0  0  0  0  0  0
   27.0890   19.2190   12.7280 O   0  0  0  0  0  0  0  0  0  0  0  0
   24.1690   17.0960   12.8330 C   0  0  0  0  0  0  0  0  0  0  0  0
   23.2650   17.7190   13.3510 O   0  0  0  0  0  0  0  0  0  0  0  0
   27.5180   15.1170    8.4990 C   0  0  0  0  0  0  0  0  0  0  0  0
   28.7350   14.6530    8.1090 N   0  0  0  0  0  0  0  0  0  0  0  0
   28.9190    9.7130    7.7560 C   0  0  0  0  0  0  0  0  0  0  0  0
   27.6300    9.4470    7.6770 N   0  0  0  0  0  0  0  0  0  0  0  0
   24.7464    9.1845    8.6779 H   0  0  0  0  0  0  0  0  0  0  0  0
   23.8606    9.4192    7.1330 H   0  0  0  0  0  0  0  0  0  0  0  0
   25.4708    8.6230    7.1330 H   0  0  0  0  0  0  0  0  0  0  0  0
   25.2727   11.1454    6.4295 H   0  0  0  0  0  0  0  0  0  0  0  0
   25.1550   11.4207    8.2216 H   0  0  0  0  0  0  0  0  0  0  0  0
   27.7496   12.7758    7.4808 H   0  0  0  0  0  0  0  0  0  0  0  0
   29.1021   12.4546   10.6282 H   0  0  0  0  0  0  0  0  0  0  0  0
   24.4521   14.3744    8.3129 H   0  0  0  0  0  0  0  0  0  0  0  0
   22.2208   15.2577    8.9674 H   0  0  0  0  0  0  0  0  0  0  0  0
   21.9541   16.5801   11.0853 H   0  0  0  0  0  0  0  0  0  0  0  0
   26.7850   15.3783   12.7203 H   0  0  0  0  0  0  0  0  0  0  0  0
   27.1203   16.8847   11.8904 H   0  0  0  0  0  0  0  0  0  0  0  0
   26.9002   17.0831   14.7309 H   0  0  0  0  0  0  0  0  0  0  0  0
   24.2701   18.5226   15.2190 H   0  0  0  0  0  0  0  0  0  0  0  0
   24.7886   16.9534   15.9208 H   0  0  0  0  0  0  0  0  0  0  0  0
   25.1834   18.8682   17.4715 H   0  0  0  0  0  0  0  0  0  0  0  0
   26.7137   18.0343   16.9840 H   0  0  0  0  0  0  0  0  0  0  0  0
   27.0606   20.9605   14.4595 H   0  0  0  0  0  0  0  0  0  0  0  0
   27.0438   15.9028    7.8926 H   0  0  0  0  0  0  0  0  0  0  0  0
   29.7102    8.9567    7.8656 H   0  0  0  0  0  0  0  0  0  0  0  0
  1  2  1  0
  2  3  1  0
  3  4  2  0
  4  5  1  0
  5  6  1  0
  6  7  2  0
  6  8  2  0
  6  9  1  0
  9 10  1  0
 10 11  2  0
 11 12  1  0
 12 13  2  0
 13 14  1  0
 14 15  2  0
 15 16  1  0
 16 17  2  0
 17 18  1  0
 18 19  2  0
 19 20  1  0
 20 21  1  0
 21 22  1  0
 22 23  1  0
 23 24  1  0
 24 25  1  0
 25 26  2  0
 25 27  1  0
 27 28  1  0
 28 29  2  0
 21 30  1  0
 30 31  2  0
 13 32  1  0
 32 33  2  0
  5 34  1  0
 34 35  2  0
 35  3  1  0
 33 10  1  0
 19 14  1  0
 28 22  1  0
 30 18  1  0
  1 36  1  0
  1 37  1  0
  1 38  1  0
  2 39  1  0
  2 40  1  0
  4 41  1  0
 11 42  1  0
 15 43  1  0
 16 44  1  0
 17 45  1  0
 20 46  1  0
 20 47  1  0
 22 48  1  1
 23 49  1  0
 23 50  1  0
 24 51  1  0
 24 52  1  0
 27 53  1  0
 32 54  1  0
 34 55  1  0
M  END
>  <meeko>  (409) 
{"is_sidechain": [true], "free_energy": -12.69, "intermolecular_energy": 0.0, "internal_energy": -12.69, "cluster_size": 15, "cluster_id": 1, "rank_in_cluster": 1}

>  <_RMSD_MCS_to_ref>  (409) 
1.4398008349922713

$$$$
ligand
     RDKit          3D

 52 56  0  0  0  0  0  0  0  0999 V2000
   24.8710    9.6160    7.7820 C   0  0  0  0  0  0  0  0  0  0  0  0
   25.4240   10.9650    7.3490 C   0  0  0  0  0  0  0  0  0  0  0  0
   26.5840   11.3880    8.1800 C   0  0  0  0  0  0  0  0  0  0  0  0
   27.7260   12.0610    7.7950 C   0  0  0  0  0  0  0  0  0  0  0  0
   28.4460   12.1870    8.9470 N   0  0  0  0  0  0  0  0  0  0  0  0
   29.8280   13.1270    9.1750 S   0  0  0  0  0  6  0  0  0  0  0  0
   29.8800   13.3310   10.6110 O   0  0  0  0  0  0  0  0  0  0  0  0
   30.8980   12.4320    8.4850 O   0  0  0  0  0  0  0  0  0  0  0  0
   29.5690   14.5810    8.4860 O   0  0  0  0  0  0  0  0  0  0  0  0
   28.6830   14.7960    7.5210 C   0  0  0  0  0  0  0  0  0  0  0  0
   29.0790   14.5650    6.2410 O   0  0  0  0  0  0  0  0  0  0  0  0
   28.0220   14.7890    5.3790 N   0  0  0  0  0  0  0  0  0  0  0  0
   27.0080   15.1720    6.1590 C   0  0  0  0  0  0  0  0  0  0  0  0
   27.3660   15.2060    7.5280 C   0  0  0  0  0  0  0  0  0  0  0  0
   26.5800   15.5320    8.7030 C   0  0  0  0  0  0  0  0  0  0  0  0
   25.3620   14.8560    8.9730 C   0  0  0  0  0  0  0  0  0  0  0  0
   24.5970   15.1530   10.1090 C   0  0  0  0  0  0  0  0  0  0  0  0
   25.0780   16.1300   10.9560 C   0  0  0  0  0  0  0  0  0  0  0  0
   26.2650   16.7880   10.7050 C   0  0  0  0  0  0  0  0  0  0  0  0
   27.0400   16.5150    9.5940 C   0  0  0  0  0  0  0  0  0  0  0  0
   26.4800   17.7350   11.7970 C   0  0  0  0  0  0  0  0  0  0  0  0
   27.4570   18.4530   11.8920 O   0  0  0  0  0  0  0  0  0  0  0  0
   25.3990   17.6320   12.6280 N   0  0  0  0  0  0  0  0  0  0  0  0
   25.3310   18.3080   13.9160 C   0  0  1  0  0  0  0  0  0  0  0  0
   26.2670   17.7350   14.9770 C   0  0  0  0  0  0  0  0  0  0  0  0
   26.0750   18.5010   16.2770 C   0  0  0  0  0  0  0  0  0  0  0  0
   26.2990   19.9830   16.0800 C   0  0  0  0  0  0  0  0  0  0  0  0
   26.6910   20.7140   16.9860 O   0  0  0  0  0  0  0  0  0  0  0  0
   25.9850   20.4940   14.8440 N   0  0  0  0  0  0  0  0  0  0  0  0
   25.6120   19.8000   13.7150 C   0  0  0  0  0  0  0  0  0  0  0  0
   25.4680   20.3850   12.6420 O   0  0  0  0  0  0  0  0  0  0  0  0
   24.5390   16.6520   12.2100 C   0  0  0  0  0  0  0  0  0  0  0  0
   23.5280   16.2350   12.7420 O   0  0  0  0  0  0  0  0  0  0  0  0
   27.7410   11.6470    9.9740 C   0  0  0  0  0  0  0  0  0  0  0  0
   26.6060   11.1400    9.5390 N   0  0  0  0  0  0  0  0  0  0  0  0
   24.8497    9.5640    8.8806 H   0  0  0  0  0  0  0  0  0  0  0  0
   23.8507    9.4948    7.3893 H   0  0  0  0  0  0  0  0  0  0  0  0
   25.5127    8.8135    7.3893 H   0  0  0  0  0  0  0  0  0  0  0  0
   25.7461   10.8959    6.2995 H   0  0  0  0  0  0  0  0  0  0  0  0
   24.6274   11.7132    7.4738 H   0  0  0  0  0  0  0  0  0  0  0  0
   27.9944   12.4150    6.7887 H   0  0  0  0  0  0  0  0  0  0  0  0
   26.0083   15.4315    5.7806 H   0  0  0  0  0  0  0  0  0  0  0  0
   25.0105   14.0817    8.2752 H   0  0  0  0  0  0  0  0  0  0  0  0
   23.6524   14.6290   10.3167 H   0  0  0  0  0  0  0  0  0  0  0  0
   27.9845   17.0492    9.4138 H   0  0  0  0  0  0  0  0  0  0  0  0
   24.3141   18.1457   14.3027 H   0  0  0  0  0  0  0  0  0  0  0  0
   26.0342   16.6720   15.1381 H   0  0  0  0  0  0  0  0  0  0  0  0
   27.3101   17.8308   14.6413 H   0  0  0  0  0  0  0  0  0  0  0  0
   25.0494   18.3389   16.6402 H   0  0  0  0  0  0  0  0  0  0  0  0
   26.8098   18.1332   17.0083 H   0  0  0  0  0  0  0  0  0  0  0  0
   26.0346   21.5186   14.7509 H   0  0  0  0  0  0  0  0  0  0  0  0
   28.0717   11.6347   11.0230 H   0  0  0  0  0  0  0  0  0  0  0  0
  1  2  1  0
  2  3  1  0
  3  4  2  0
  4  5  1  0
  5  6  1  0
  6  7  2  0
  6  8  2  0
  6  9  1  0
  9 10  1  0
 10 11  1  0
 11 12  1  0
 12 13  2  0
 13 14  1  0
 14 15  1  0
 15 16  2  0
 16 17  1  0
 17 18  2  0
 18 19  1  0
 19 20  2  0
 19 21  1  0
 21 22  2  0
 21 23  1  0
 23 24  1  0
 24 25  1  0
 25 26  1  0
 26 27  1  0
 27 28  2  0
 27 29  1  0
 29 30  1  0
 30 31  2  0
 23 32  1  0
 32 33  2  0
  5 34  1  0
 34 35  2  0
 35  3  1  0
 14 10  2  0
 20 15  1  0
 30 24  1  0
 32 18  1  0
  1 36  1  0
  1 37  1  0
  1 38  1  0
  2 39  1  0
  2 40  1  0
  4 41  1  0
 13 42  1  0
 16 43  1  0
 17 44  1  0
 20 45  1  0
 24 46  1  1
 25 47  1  0
 25 48  1  0
 26 49  1  0
 26 50  1  0
 29 51  1  0
 34 52  1  0
M  END
>  <meeko>  (410) 
{"is_sidechain": [true], "free_energy": -12.69, "intermolecular_energy": 0.0, "internal_energy": -12.69, "cluster_size": 13, "cluster_id": 1, "rank_in_cluster": 1}

>  <_RMSD_MCS_to_ref>  (410) 
1.0870239671981283

$$$$
ligand
     RDKit          3D

 59 63  0  0  0  0  0  0  0  0999 V2000
   24.8710    9.6160    7.7820 C   0  0  0  0  0  0  0  0  0  0  0  0
   25.4240   10.9650    7.3490 C   0  0  0  0  0  0  0  0  0  0  0  0
   26.9100   10.9620    7.2570 C   0  0  0  0  0  0  0  0  0  0  0  0
   27.7470   11.9440    6.7650 C   0  0  0  0  0  0  0  0  0  0  0  0
   29.0010   11.4150    6.8900 N   0  0  0  0  0  0  0  0  0  0  0  0
   30.4460   12.2520    6.6570 S   0  0  0  0  0  6  0  0  0  0  0  0
   31.5020   11.2610    6.7220 O   0  0  0  0  0  0  0  0  0  0  0  0
   30.2220   13.0710    5.4780 O   0  0  0  0  0  0  0  0  0  0  0  0
   30.5330   13.3080    8.0790 C   0  0  0  0  0  0  0  0  0  0  0  0
   31.7340   13.8360    8.5150 C   0  0  0  0  0  0  0  0  0  0  0  0
   31.6740   14.7560    9.5550 C   0  0  0  0  0  0  0  0  0  0  0  0
   30.4340   15.1130   10.0960 C   0  0  0  0  0  0  0  0  0  0  0  0
   29.2890   14.5100    9.5980 C   0  0  0  0  0  0  0  0  0  0  0  0
   27.9930   14.7980   10.0100 N   0  0  0  0  0  0  0  0  0  0  0  0
   27.1490   15.7730    9.5480 C   0  0  0  0  0  0  0  0  0  0  0  0
   27.4390   16.7160    8.8250 O   0  0  0  0  0  0  0  0  0  0  0  0
   25.7420   15.6110    9.9970 C   0  0  0  0  0  0  0  0  0  0  0  0
   24.8430   14.9130    9.1740 C   0  0  0  0  0  0  0  0  0  0  0  0
   23.4940   14.7630    9.5470 C   0  0  0  0  0  0  0  0  0  0  0  0
   23.0280   15.3000   10.7490 C   0  0  0  0  0  0  0  0  0  0  0  0
   23.9410   15.9550   11.5550 C   0  0  0  0  0  0  0  0  0  0  0  0
   25.2820   16.1090   11.2110 C   0  0  0  0  0  0  0  0  0  0  0  0
   25.9980   16.8200   12.3110 C   0  0  0  0  0  0  0  0  0  0  0  0
   24.9550   17.0490   13.2970 N   0  0  0  0  0  0  0  0  0  0  0  0
   25.1490   18.0570   14.3360 C   0  0  2  0  0  0  0  0  0  0  0  0
   25.6210   19.4140   13.8230 C   0  0  0  0  0  0  0  0  0  0  0  0
   25.6600   20.3950   14.9860 C   0  0  0  0  0  0  0  0  0  0  0  0
   26.5360   19.8870   16.1080 C   0  0  0  0  0  0  0  0  0  0  0  0
   27.0680   20.6450   16.9140 O   0  0  0  0  0  0  0  0  0  0  0  0
   26.6670   18.5260   16.2260 N   0  0  0  0  0  0  0  0  0  0  0  0
   26.1020   17.5510   15.4350 C   0  0  0  0  0  0  0  0  0  0  0  0
   26.3130   16.3590   15.6630 O   0  0  0  0  0  0  0  0  0  0  0  0
   23.7170   16.6140   12.8490 C   0  0  0  0  0  0  0  0  0  0  0  0
   22.6270   16.7590   13.3650 O   0  0  0  0  0  0  0  0  0  0  0  0
   29.3180   13.6050    8.6040 N   0  0  0  0  0  0  0  0  0  0  0  0
   28.9060   10.1920    7.4780 C   0  0  0  0  0  0  0  0  0  0  0  0
   27.6440    9.8840    7.7120 N   0  0  0  0  0  0  0  0  0  0  0  0
   24.8497    9.5640    8.8806 H   0  0  0  0  0  0  0  0  0  0  0  0
   23.8507    9.4948    7.3893 H   0  0  0  0  0  0  0  0  0  0  0  0
   25.5127    8.8135    7.3893 H   0  0  0  0  0  0  0  0  0  0  0  0
   25.0088   11.2175    6.3622 H   0  0  0  0  0  0  0  0  0  0  0  0
   25.1348   11.7071    8.1077 H   0  0  0  0  0  0  0  0  0  0  0  0
   27.4676   12.9292    6.3633 H   0  0  0  0  0  0  0  0  0  0  0  0
   32.6915   13.5419    8.0604 H   0  0  0  0  0  0  0  0  0  0  0  0
   32.5981   15.2019    9.9514 H   0  0  0  0  0  0  0  0  0  0  0  0
   30.3687   15.8587   10.9020 H   0  0  0  0  0  0  0  0  0  0  0  0
   27.6185   14.2003   10.7606 H   0  0  0  0  0  0  0  0  0  0  0  0
   25.1971   14.4787    8.2274 H   0  0  0  0  0  0  0  0  0  0  0  0
   22.8021   14.2191    8.8872 H   0  0  0  0  0  0  0  0  0  0  0  0
   21.9725   15.2053   11.0440 H   0  0  0  0  0  0  0  0  0  0  0  0
   26.8021   16.1947   12.7262 H   0  0  0  0  0  0  0  0  0  0  0  0
   26.4856   17.7479   11.9774 H   0  0  0  0  0  0  0  0  0  0  0  0
   24.1460   18.2199   14.7573 H   0  0  0  0  0  0  0  0  0  0  0  0
   26.6272   19.3152   13.3895 H   0  0  0  0  0  0  0  0  0  0  0  0
   24.9301   19.7806   13.0495 H   0  0  0  0  0  0  0  0  0  0  0  0
   26.0572   21.3568   14.6295 H   0  0  0  0  0  0  0  0  0  0  0  0
   24.6371   20.5138   15.3726 H   0  0  0  0  0  0  0  0  0  0  0  0
   27.2598   18.1937   17.0000 H   0  0  0  0  0  0  0  0  0  0  0  0
   29.7631    9.5482    7.7246 H   0  0  0  0  0  0  0  0  0  0  0  0
  1  2  1  0
  2  3  1  0
  3  4  2  0
  4  5  1  0
  5  6  1  0
  6  7  2  0
  6  8  2  0
  6  9  1  0
  9 10  2  0
 10 11  1  0
 11 12  2  0
 12 13  1  0
 13 14  1  0
 14 15  1  0
 15 16  2  0
 15 17  1  0
 17 18  2  0
 18 19  1  0
 19 20  2  0
 20 21  1  0
 21 22  2  0
 22 23  1  0
 23 24  1  0
 24 25  1  0
 25 26  1  0
 26 27  1  0
 27 28  1  0
 28 29  2  0
 28 30  1  0
 30 31  1  0
 31 32  2  0
 24 33  1  0
 33 34  2  0
 13 35  2  0
  5 36  1  0
 36 37  2  0
 37  3  1  0
 35  9  1  0
 22 17  1  0
 31 25  1  0
 33 21  1  0
  1 38  1  0
  1 39  1  0
  1 40  1  0
  2 41  1  0
  2 42  1  0
  4 43  1  0
 10 44  1  0
 11 45  1  0
 12 46  1  0
 14 47  1  0
 18 48  1  0
 19 49  1  0
 20 50  1  0
 23 51  1  0
 23 52  1  0
 25 53  1  1
 26 54  1  0
 26 55  1  0
 27 56  1  0
 27 57  1  0
 30 58  1  0
 36 59  1  0
M  END
>  <meeko>  (411) 
{"is_sidechain": [true], "free_energy": -12.69, "intermolecular_energy": 0.0, "internal_energy": -12.69, "cluster_size": 13, "cluster_id": 1, "rank_in_cluster": 1}

>  <_RMSD_MCS_to_ref>  (411) 
1.718081569011721

$$$$
ligand
     RDKit          3D

 63 68  0  0  0  0  0  0  0  0999 V2000
   24.8710    9.6160    7.7820 C   0  0  0  0  0  0  0  0  0  0  0  0
   25.4240   10.9650    7.3490 C   0  0  0  0  0  0  0  0  0  0  0  0
   26.8250   11.1710    7.8080 C   0  0  0  0  0  0  0  0  0  0  0  0
   27.3070   12.0700    8.7390 C   0  0  0  0  0  0  0  0  0  0  0  0
   28.6450   11.8120    8.7920 N   0  0  0  0  0  0  0  0  0  0  0  0
   29.8070   12.7680    9.5520 S   0  0  0  0  0  6  0  0  0  0  0  0
   31.0740   12.2830    9.0380 O   0  0  0  0  0  0  0  0  0  0  0  0
   29.4860   12.6930   10.9650 O   0  0  0  0  0  0  0  0  0  0  0  0
   29.5690   14.2870    8.9880 O   0  0  0  0  0  0  0  0  0  0  0  0
   28.9910   14.4380    7.7560 C   0  0  0  0  0  0  0  0  0  0  0  0
   27.6840   14.9640    7.6540 C   0  0  0  0  0  0  0  0  0  0  0  0
   26.9140   15.3730    8.8390 C   0  0  0  0  0  0  0  0  0  0  0  0
   25.6490   14.7900    9.1020 C   0  0  0  0  0  0  0  0  0  0  0  0
   24.9060   15.1410   10.2320 C   0  0  0  0  0  0  0  0  0  0  0  0
   25.4550   16.0760   11.0860 C   0  0  0  0  0  0  0  0  0  0  0  0
   26.6930   16.6710   10.8540 C   0  0  0  0  0  0  0  0  0  0  0  0
   27.4310   16.3340    9.7320 C   0  0  0  0  0  0  0  0  0  0  0  0
   27.0090   17.6320   11.9540 C   0  0  0  0  0  0  0  0  0  0  0  0
   25.8980   17.4340   12.8760 N   0  0  0  0  0  0  0  0  0  0  0  0
   25.6560   18.2760   14.0420 C   0  0  1  0  0  0  0  0  0  0  0  0
   26.3200   17.7320   15.3020 C   0  0  0  0  0  0  0  0  0  0  0  0
   25.9460   18.6050   16.4900 C   0  0  0  0  0  0  0  0  0  0  0  0
   26.3130   20.0490   16.2410 C   0  0  0  0  0  0  0  0  0  0  0  0
   26.7050   20.7910   17.1360 O   0  0  0  0  0  0  0  0  0  0  0  0
   26.1680   20.5060   14.9540 N   0  0  0  0  0  0  0  0  0  0  0  0
   26.1110   19.7270   13.8220 C   0  0  0  0  0  0  0  0  0  0  0  0
   26.4140   20.2000   12.7290 O   0  0  0  0  0  0  0  0  0  0  0  0
   24.9230   16.6020   12.3480 C   0  0  0  0  0  0  0  0  0  0  0  0
   23.8340   16.3300   12.8150 O   0  0  0  0  0  0  0  0  0  0  0  0
   27.1020   15.0930    6.3700 C   0  0  0  0  0  0  0  0  0  0  0  0
   27.7840   14.6910    5.2190 C   0  0  0  0  0  0  0  0  0  0  0  0
   29.0490   14.1580    5.3800 C   0  0  0  0  0  0  0  0  0  0  0  0
   29.6660   14.0220    6.6160 C   0  0  0  0  0  0  0  0  0  0  0  0
   31.0350   13.4290    6.4980 C   0  0  0  0  0  0  0  0  0  0  0  0
   31.1840   13.0850    5.0070 C   0  0  0  0  0  0  0  0  0  0  0  0
   29.9400   13.6320    4.3550 C   0  0  0  0  0  0  0  0  0  0  0  0
   29.6820   13.6260    3.1650 O   0  0  0  0  0  0  0  0  0  0  0  0
   28.9500   10.8520    7.8810 C   0  0  0  0  0  0  0  0  0  0  0  0
   27.8610   10.4240    7.2800 N   0  0  0  0  0  0  0  0  0  0  0  0
   24.8497    9.5640    8.8806 H   0  0  0  0  0  0  0  0  0  0  0  0
   23.8507    9.4948    7.3893 H   0  0  0  0  0  0  0  0  0  0  0  0
   25.5127    8.8135    7.3893 H   0  0  0  0  0  0  0  0  0  0  0  0
   25.3988   11.0224    6.2508 H   0  0  0  0  0  0  0  0  0  0  0  0
   24.8003   11.7481    7.8048 H   0  0  0  0  0  0  0  0  0  0  0  0
   26.7409   12.8223    9.3078 H   0  0  0  0  0  0  0  0  0  0  0  0
   25.2436   14.0452    8.4014 H   0  0  0  0  0  0  0  0  0  0  0  0
   23.9229   14.6902   10.4330 H   0  0  0  0  0  0  0  0  0  0  0  0
   28.4048   16.8083    9.5404 H   0  0  0  0  0  0  0  0  0  0  0  0
   27.9696   17.3879   12.4311 H   0  0  0  0  0  0  0  0  0  0  0  0
   27.1135   18.6718   11.6107 H   0  0  0  0  0  0  0  0  0  0  0  0
   24.5652   18.2636   14.1832 H   0  0  0  0  0  0  0  0  0  0  0  0
   25.9774   16.7022   15.4815 H   0  0  0  0  0  0  0  0  0  0  0  0
   27.4123   17.7379   15.1724 H   0  0  0  0  0  0  0  0  0  0  0  0
   24.8616   18.5342   16.6605 H   0  0  0  0  0  0  0  0  0  0  0  0
   26.5001   18.2509   17.3718 H   0  0  0  0  0  0  0  0  0  0  0  0
   26.0953   21.5253   14.8248 H   0  0  0  0  0  0  0  0  0  0  0  0
   26.0919   15.5185    6.2767 H   0  0  0  0  0  0  0  0  0  0  0  0
   27.3312   14.7948    4.2219 H   0  0  0  0  0  0  0  0  0  0  0  0
   31.8006   14.1560    6.8068 H   0  0  0  0  0  0  0  0  0  0  0  0
   31.1639   12.5476    7.1434 H   0  0  0  0  0  0  0  0  0  0  0  0
   32.0821   13.5622    4.5879 H   0  0  0  0  0  0  0  0  0  0  0  0
   31.2961   12.0033    4.8414 H   0  0  0  0  0  0  0  0  0  0  0  0
   29.9658   10.4838    7.6746 H   0  0  0  0  0  0  0  0  0  0  0  0
  1  2  1  0
  2  3  1  0
  3  4  2  0
  4  5  1  0
  5  6  1  0
  6  7  2  0
  6  8  2  0
  6  9  1  0
  9 10  1  0
 10 11  1  0
 11 12  1  0
 12 13  2  0
 13 14  1  0
 14 15  2  0
 15 16  1  0
 16 17  2  0
 16 18  1  0
 18 19  1  0
 19 20  1  0
 20 21  1  0
 21 22  1  0
 22 23  1  0
 23 24  2  0
 23 25  1  0
 25 26  1  0
 26 27  2  0
 19 28  1  0
 28 29  2  0
 11 30  2  0
 30 31  1  0
 31 32  2  0
 32 33  1  0
 33 34  1  0
 34 35  1  0
 35 36  1  0
 36 37  2  0
  5 38  1  0
 38 39  2  0
 39  3  1  0
 33 10  2  0
 17 12  1  0
 26 20  1  0
 36 32  1  0
 28 15  1  0
  1 40  1  0
  1 41  1  0
  1 42  1  0
  2 43  1  0
  2 44  1  0
  4 45  1  0
 13 46  1  0
 14 47  1  0
 17 48  1  0
 18 49  1  0
 18 50  1  0
 20 51  1  1
 21 52  1  0
 21 53  1  0
 22 54  1  0
 22 55  1  0
 25 56  1  0
 30 57  1  0
 31 58  1  0
 34 59  1  0
 34 60  1  0
 35 61  1  0
 35 62  1  0
 38 63  1  0
M  END
>  <meeko>  (412) 
{"is_sidechain": [true], "free_energy": -12.69, "intermolecular_energy": 0.0, "internal_energy": -12.69, "cluster_size": 13, "cluster_id": 1, "rank_in_cluster": 1}

>  <_RMSD_MCS_to_ref>  (412) 
1.3566741260194088

$$$$
ligand
     RDKit          3D

 55 59  0  0  0  0  0  0  0  0999 V2000
   24.8710    9.6160    7.7820 C   0  0  0  0  0  0  0  0  0  0  0  0
   25.4240   10.9650    7.3490 C   0  0  0  0  0  0  0  0  0  0  0  0
   26.8380   10.8730    6.8960 C   0  0  0  0  0  0  0  0  0  0  0  0
   27.9980   10.9830    7.6380 C   0  0  0  0  0  0  0  0  0  0  0  0
   28.9980   10.7860    6.7270 N   0  0  0  0  0  0  0  0  0  0  0  0
   30.6450   11.0220    7.0150 S   0  0  0  0  0  6  0  0  0  0  0  0
   30.9030   10.2750    8.2340 O   0  0  0  0  0  0  0  0  0  0  0  0
   31.3050   10.6700    5.7720 O   0  0  0  0  0  0  0  0  0  0  0  0
   30.8730   12.6120    7.3400 O   0  0  0  0  0  0  0  0  0  0  0  0
   29.8460   13.3350    7.8840 C   0  0  0  0  0  0  0  0  0  0  0  0
   29.8310   13.6400    9.2450 C   0  0  0  0  0  0  0  0  0  0  0  0
   28.7710   14.3730    9.7730 C   0  0  0  0  0  0  0  0  0  0  0  0
   27.7220   14.7820    8.9280 C   0  0  0  0  0  0  0  0  0  0  0  0
   27.7170   14.4560    7.5510 C   0  0  0  0  0  0  0  0  0  0  0  0
   26.6520   14.8750    6.7350 C   0  0  0  0  0  0  0  0  0  0  0  0
   25.5780   15.6200    7.2510 C   0  0  0  0  0  0  0  0  0  0  0  0
   25.5690   15.9510    8.6170 C   0  0  0  0  0  0  0  0  0  0  0  0
   24.6960   16.6640    9.4770 C   0  0  0  0  0  0  0  0  0  0  0  0
   25.2600   16.6360   10.7380 C   0  0  0  0  0  0  0  0  0  0  0  0
   24.8100   17.1990   11.9920 C   0  0  0  0  0  0  0  0  0  0  0  0
   23.6310   17.4060   12.2640 O   0  0  0  0  0  0  0  0  0  0  0  0
   25.8260   17.5030   12.8700 N   0  0  0  0  0  0  0  0  0  0  0  0
   25.5950   18.2310   14.1040 C   0  0  1  0  0  0  0  0  0  0  0  0
   26.3160   17.6010   15.2910 C   0  0  0  0  0  0  0  0  0  0  0  0
   26.0590   18.4290   16.5400 C   0  0  0  0  0  0  0  0  0  0  0  0
   26.4660   19.8690   16.3360 C   0  0  0  0  0  0  0  0  0  0  0  0
   26.9230   20.5590   17.2420 O   0  0  0  0  0  0  0  0  0  0  0  0
   26.2710   20.3910   15.0820 N   0  0  0  0  0  0  0  0  0  0  0  0
   26.0940   19.6700   13.9270 C   0  0  0  0  0  0  0  0  0  0  0  0
   26.3150   20.1720   12.8250 O   0  0  0  0  0  0  0  0  0  0  0  0
   26.4410   15.9410   10.7000 O   0  0  0  0  0  0  0  0  0  0  0  0
   26.6290   15.5280    9.4130 C   0  0  0  0  0  0  0  0  0  0  0  0
   28.7950   13.7150    7.0450 C   0  0  0  0  0  0  0  0  0  0  0  0
   28.4520   10.6390    5.4930 C   0  0  0  0  0  0  0  0  0  0  0  0
   27.1380   10.6660    5.5650 N   0  0  0  0  0  0  0  0  0  0  0  0
   24.8497    9.5640    8.8806 H   0  0  0  0  0  0  0  0  0  0  0  0
   23.8507    9.4948    7.3893 H   0  0  0  0  0  0  0  0  0  0  0  0
   25.5127    8.8135    7.3893 H   0  0  0  0  0  0  0  0  0  0  0  0
   24.8109   11.3500    6.5208 H   0  0  0  0  0  0  0  0  0  0  0  0
   25.3908   11.6385    8.2181 H   0  0  0  0  0  0  0  0  0  0  0  0
   28.0949   11.1833    8.7153 H   0  0  0  0  0  0  0  0  0  0  0  0
   30.6508   13.3039    9.8969 H   0  0  0  0  0  0  0  0  0  0  0  0
   28.7536   14.6304   10.8423 H   0  0  0  0  0  0  0  0  0  0  0  0
   26.6594   14.6134    5.6666 H   0  0  0  0  0  0  0  0  0  0  0  0
   24.7553   15.9399    6.5946 H   0  0  0  0  0  0  0  0  0  0  0  0
   23.7494   17.1476    9.1940 H   0  0  0  0  0  0  0  0  0  0  0  0
   26.7848   17.2029   12.6428 H   0  0  0  0  0  0  0  0  0  0  0  0
   24.5158   18.2042   14.3152 H   0  0  0  0  0  0  0  0  0  0  0  0
   25.9419   16.5783   15.4461 H   0  0  0  0  0  0  0  0  0  0  0  0
   27.3967   17.5703   15.0883 H   0  0  0  0  0  0  0  0  0  0  0  0
   24.9865   18.3903   16.7813 H   0  0  0  0  0  0  0  0  0  0  0  0
   26.6579   18.0118   17.3629 H   0  0  0  0  0  0  0  0  0  0  0  0
   26.2560   21.4176   14.9997 H   0  0  0  0  0  0  0  0  0  0  0  0
   28.8133   13.4315    5.9823 H   0  0  0  0  0  0  0  0  0  0  0  0
   29.0269   10.5148    4.5634 H   0  0  0  0  0  0  0  0  0  0  0  0
  1  2  1  0
  2  3  1  0
  3  4  2  0
  4  5  1  0
  5  6  1  0
  6  7  2  0
  6  8  2  0
  6  9  1  0
  9 10  1  0
 10 11  2  0
 11 12  1  0
 12 13  2  0
 13 14  1  0
 14 15  1  0
 15 16  2  0
 16 17  1  0
 17 18  1  0
 18 19  2  0
 19 20  1  0
 20 21  2  0
 20 22  1  0
 22 23  1  0
 23 24  1  0
 24 25  1  0
 25 26  1  0
 26 27  2  0
 26 28  1  0
 28 29  1  0
 29 30  2  0
 19 31  1  0
 31 32  1  0
 14 33  2  0
  5 34  1  0
 34 35  2  0
 35  3  1  0
 33 10  1  0
 32 13  1  0
 32 17  2  0
 29 23  1  0
  1 36  1  0
  1 37  1  0
  1 38  1  0
  2 39  1  0
  2 40  1  0
  4 41  1  0
 11 42  1  0
 12 43  1  0
 15 44  1  0
 16 45  1  0
 18 46  1  0
 22 47  1  0
 23 48  1  1
 24 49  1  0
 24 50  1  0
 25 51  1  0
 25 52  1  0
 28 53  1  0
 33 54  1  0
 34 55  1  0
M  END
>  <meeko>  (413) 
{"is_sidechain": [true], "free_energy": -12.68, "intermolecular_energy": 0.0, "internal_energy": -12.68, "cluster_size": 20, "cluster_id": 1, "rank_in_cluster": 1}

>  <_RMSD_MCS_to_ref>  (413) 
0.9536586857408105

$$$$
ligand
     RDKit          3D

 59 63  0  0  0  0  0  0  0  0999 V2000
   24.8710    9.6160    7.7820 C   0  0  0  0  0  0  0  0  0  0  0  0
   25.4240   10.9650    7.3490 C   0  0  0  0  0  0  0  0  0  0  0  0
   26.7050   11.2930    8.0300 C   0  0  0  0  0  0  0  0  0  0  0  0
   27.9680   11.4290    7.4890 C   0  0  0  0  0  0  0  0  0  0  0  0
   28.7600   11.7290    8.5610 N   0  0  0  0  0  0  0  0  0  0  0  0
   30.4070   12.0450    8.4970 S   0  0  0  0  0  6  0  0  0  0  0  0
   31.0950   10.7710    8.3960 O   0  0  0  0  0  0  0  0  0  0  0  0
   30.6390   12.9480    9.6110 O   0  0  0  0  0  0  0  0  0  0  0  0
   30.6650   12.9390    6.9850 C   0  0  0  0  0  0  0  0  0  0  0  0
   31.7580   12.5560    6.1890 C   0  0  0  0  0  0  0  0  0  0  0  0
   32.0410   13.2380    5.0070 C   0  0  0  0  0  0  0  0  0  0  0  0
   31.2360   14.3010    4.6150 C   0  0  0  0  0  0  0  0  0  0  0  0
   30.1420   14.6760    5.3980 C   0  0  0  0  0  0  0  0  0  0  0  0
   29.8320   13.9970    6.5890 C   0  0  0  0  0  0  0  0  0  0  0  0
   28.6550   14.4450    7.3260 C   0  0  0  0  0  0  0  0  0  0  0  0
   27.3370   14.5510    6.9180 C   0  0  0  0  0  0  0  0  0  0  0  0
   26.5670   15.0250    8.0140 C   0  0  0  0  0  0  0  0  0  0  0  0
   25.2100   15.3590    8.1860 C   0  0  0  0  0  0  0  0  0  0  0  0
   24.7680   15.8240    9.4330 C   0  0  0  0  0  0  0  0  0  0  0  0
   25.6580   15.9490   10.5060 C   0  0  0  0  0  0  0  0  0  0  0  0
   25.2160   16.4420   11.8420 C   0  0  0  0  0  0  0  0  0  0  0  0
   24.2050   15.9900   12.3720 O   0  0  0  0  0  0  0  0  0  0  0  0
   25.9700   17.4440   12.4140 N   0  0  0  0  0  0  0  0  0  0  0  0
   25.5380   18.0990   13.6410 C   0  0  1  0  0  0  0  0  0  0  0  0
   25.9140   17.3010   14.8860 C   0  0  0  0  0  0  0  0  0  0  0  0
   25.4670   18.0580   16.1270 C   0  0  0  0  0  0  0  0  0  0  0  0
   26.0470   19.4520   16.1560 C   0  0  0  0  0  0  0  0  0  0  0  0
   26.3510   20.0180   17.2030 O   0  0  0  0  0  0  0  0  0  0  0  0
   26.1930   20.0840   14.9470 N   0  0  0  0  0  0  0  0  0  0  0  0
   26.2000   19.4780   13.7160 C   0  0  0  0  0  0  0  0  0  0  0  0
   26.6990   20.0330   12.7370 O   0  0  0  0  0  0  0  0  0  0  0  0
   27.0180   15.6350   10.3440 C   0  0  0  0  0  0  0  0  0  0  0  0
   27.4370   15.1720    9.0910 C   0  0  0  0  0  0  0  0  0  0  0  0
   28.6870   14.7980    8.6570 N   0  0  0  0  0  0  0  0  0  0  0  0
   27.9930   11.7980    9.6780 C   0  0  0  0  0  0  0  0  0  0  0  0
   26.7360   11.5230    9.3910 N   0  0  0  0  0  0  0  0  0  0  0  0
   24.8497    9.5640    8.8806 H   0  0  0  0  0  0  0  0  0  0  0  0
   23.8507    9.4948    7.3893 H   0  0  0  0  0  0  0  0  0  0  0  0
   25.5127    8.8135    7.3893 H   0  0  0  0  0  0  0  0  0  0  0  0
   25.5955   10.9452    6.2626 H   0  0  0  0  0  0  0  0  0  0  0  0
   24.6886   11.7352    7.6247 H   0  0  0  0  0  0  0  0  0  0  0  0
   28.2678   11.3206    6.4362 H   0  0  0  0  0  0  0  0  0  0  0  0
   32.3933   11.7137    6.5004 H   0  0  0  0  0  0  0  0  0  0  0  0
   32.8980   12.9362    4.3869 H   0  0  0  0  0  0  0  0  0  0  0  0
   31.4607   14.8475    3.6872 H   0  0  0  0  0  0  0  0  0  0  0  0
   29.5114   15.5181    5.0768 H   0  0  0  0  0  0  0  0  0  0  0  0
   26.9514   14.3096    5.9165 H   0  0  0  0  0  0  0  0  0  0  0  0
   24.5029   15.2561    7.3497 H   0  0  0  0  0  0  0  0  0  0  0  0
   23.7103   16.0935    9.5694 H   0  0  0  0  0  0  0  0  0  0  0  0
   26.8517   17.7337   11.9673 H   0  0  0  0  0  0  0  0  0  0  0  0
   24.4413   18.1803   13.6158 H   0  0  0  0  0  0  0  0  0  0  0  0
   25.4178   16.3197   14.8564 H   0  0  0  0  0  0  0  0  0  0  0  0
   27.0045   17.1595   14.9155 H   0  0  0  0  0  0  0  0  0  0  0  0
   24.3691   18.1262   16.1294 H   0  0  0  0  0  0  0  0  0  0  0  0
   25.8242   17.5140   17.0138 H   0  0  0  0  0  0  0  0  0  0  0  0
   26.3079   21.1074   14.9651 H   0  0  0  0  0  0  0  0  0  0  0  0
   27.7301   15.7492   11.1745 H   0  0  0  0  0  0  0  0  0  0  0  0
   29.5315   14.7838    9.2464 H   0  0  0  0  0  0  0  0  0  0  0  0
   28.3672   12.0482   10.6817 H   0  0  0  0  0  0  0  0  0  0  0  0
  1  2  1  0
  2  3  1  0
  3  4  2  0
  4  5  1  0
  5  6  1  0
  6  7  2  0
  6  8  2  0
  6  9  1  0
  9 10  2  0
 10 11  1  0
 11 12  2  0
 12 13  1  0
 13 14  2  0
 14 15  1  0
 15 16  2  0
 16 17  1  0
 17 18  2  0
 18 19  1  0
 19 20  2  0
 20 21  1  0
 21 22  2  0
 21 23  1  0
 23 24  1  0
 24 25  1  0
 25 26  1  0
 26 27  1  0
 27 28  2  0
 27 29  1  0
 29 30  1  0
 30 31  2  0
 20 32  1  0
 32 33  2  0
 33 34  1  0
  5 35  1  0
 35 36  2  0
 36  3  1  0
 14  9  1  0
 34 15  1  0
 33 17  1  0
 30 24  1  0
  1 37  1  0
  1 38  1  0
  1 39  1  0
  2 40  1  0
  2 41  1  0
  4 42  1  0
 10 43  1  0
 11 44  1  0
 12 45  1  0
 13 46  1  0
 16 47  1  0
 18 48  1  0
 19 49  1  0
 23 50  1  0
 24 51  1  6
 25 52  1  0
 25 53  1  0
 26 54  1  0
 26 55  1  0
 29 56  1  0
 32 57  1  0
 34 58  1  0
 35 59  1  0
M  END
>  <meeko>  (414) 
{"is_sidechain": [true], "free_energy": -12.68, "intermolecular_energy": 0.0, "internal_energy": -12.68, "cluster_size": 20, "cluster_id": 1, "rank_in_cluster": 1}

>  <_RMSD_MCS_to_ref>  (414) 
1.2157967038119493

$$$$
ligand
     RDKit          3D

 53 57  0  0  0  0  0  0  0  0999 V2000
   24.8710    9.6160    7.7820 C   0  0  0  0  0  0  0  0  0  0  0  0
   25.4240   10.9650    7.3490 C   0  0  0  0  0  0  0  0  0  0  0  0
   26.8900   10.9160    7.0950 C   0  0  0  0  0  0  0  0  0  0  0  0
   27.9010   11.6310    7.7060 C   0  0  0  0  0  0  0  0  0  0  0  0
   29.0370   11.1980    7.0830 N   0  0  0  0  0  0  0  0  0  0  0  0
   30.6020   11.7310    7.4180 S   0  0  0  0  0  6  0  0  0  0  0  0
   31.3220   11.4620    6.1840 O   0  0  0  0  0  0  0  0  0  0  0  0
   31.0010   11.0740    8.6510 O   0  0  0  0  0  0  0  0  0  0  0  0
   30.5940   13.3440    7.6250 O   0  0  0  0  0  0  0  0  0  0  0  0
   29.4120   14.0070    7.8400 C   0  0  0  0  0  0  0  0  0  0  0  0
   29.0410   14.1890    9.1600 C   0  0  0  0  0  0  0  0  0  0  0  0
   27.8630   14.9010    9.3120 C   0  0  0  0  0  0  0  0  0  0  0  0
   27.2740   15.2120   10.4980 O   0  0  0  0  0  0  0  0  0  0  0  0
   26.1340   15.9160   10.2200 C   0  0  0  0  0  0  0  0  0  0  0  0
   25.3420   16.3490   11.3700 C   0  0  0  0  0  0  0  0  0  0  0  0
   24.0030   15.9700   11.5120 C   0  0  0  0  0  0  0  0  0  0  0  0
   23.2650   16.3870   12.6180 C   0  0  0  0  0  0  0  0  0  0  0  0
   23.8560   17.1890   13.5960 C   0  0  0  0  0  0  0  0  0  0  0  0
   25.1960   17.5920   13.4920 C   0  0  0  0  0  0  0  0  0  0  0  0
   25.8050   18.4280   14.4930 N   0  0  0  0  0  0  0  0  0  0  0  0
   26.5090   17.8130   15.6150 C   0  0  0  0  0  0  0  0  0  0  0  0
   26.3100   18.6120   16.8850 C   0  0  0  0  0  0  0  0  0  0  0  0
   26.7020   20.0350   16.6390 C   0  0  0  0  0  0  0  0  0  0  0  0
   27.0380   20.7920   17.5450 O   0  0  0  0  0  0  0  0  0  0  0  0
   26.5770   20.4690   15.3500 N   0  0  0  0  0  0  0  0  0  0  0  0
   25.9410   19.8120   14.3230 C   0  0  0  0  0  0  0  0  0  0  0  0
   25.5610   20.4760   13.3620 O   0  0  0  0  0  0  0  0  0  0  0  0
   25.9170   17.1610   12.3650 C   0  0  0  0  0  0  0  0  0  0  0  0
   26.0030   16.0550    8.8500 C   0  0  0  0  0  0  0  0  0  0  0  0
   27.1150   15.4020    8.2580 C   0  0  0  0  0  0  0  0  0  0  0  0
   27.5820   15.1780    6.9640 C   0  0  0  0  0  0  0  0  0  0  0  0
   28.7360   14.4830    6.7730 N   0  0  0  0  0  0  0  0  0  0  0  0
   28.7110   10.2690    6.1500 C   0  0  0  0  0  0  0  0  0  0  0  0
   27.4070   10.0740    6.1300 N   0  0  0  0  0  0  0  0  0  0  0  0
   24.8497    9.5640    8.8806 H   0  0  0  0  0  0  0  0  0  0  0  0
   23.8507    9.4948    7.3893 H   0  0  0  0  0  0  0  0  0  0  0  0
   25.5127    8.8135    7.3893 H   0  0  0  0  0  0  0  0  0  0  0  0
   24.9146   11.2768    6.4253 H   0  0  0  0  0  0  0  0  0  0  0  0
   25.2462   11.6808    8.1651 H   0  0  0  0  0  0  0  0  0  0  0  0
   27.8121   12.3772    8.5093 H   0  0  0  0  0  0  0  0  0  0  0  0
   29.6261   13.8047   10.0085 H   0  0  0  0  0  0  0  0  0  0  0  0
   23.5296   15.3387   10.7456 H   0  0  0  0  0  0  0  0  0  0  0  0
   22.2128   16.0831   12.7209 H   0  0  0  0  0  0  0  0  0  0  0  0
   23.2608   17.5106   14.4633 H   0  0  0  0  0  0  0  0  0  0  0  0
   26.1228   16.7943   15.7669 H   0  0  0  0  0  0  0  0  0  0  0  0
   27.5838   17.7875   15.3823 H   0  0  0  0  0  0  0  0  0  0  0  0
   25.2526   18.5685   17.1849 H   0  0  0  0  0  0  0  0  0  0  0  0
   26.9335   18.1909   17.6875 H   0  0  0  0  0  0  0  0  0  0  0  0
   27.0018   21.3799   15.1246 H   0  0  0  0  0  0  0  0  0  0  0  0
   26.9674   17.4692   12.2571 H   0  0  0  0  0  0  0  0  0  0  0  0
   25.1906   16.5736    8.3198 H   0  0  0  0  0  0  0  0  0  0  0  0
   27.0195   15.5618    6.1001 H   0  0  0  0  0  0  0  0  0  0  0  0
   29.4328    9.7511    5.5013 H   0  0  0  0  0  0  0  0  0  0  0  0
  1  2  1  0
  2  3  1  0
  3  4  2  0
  4  5  1  0
  5  6  1  0
  6  7  2  0
  6  8  2  0
  6  9  1  0
  9 10  1  0
 10 11  2  0
 11 12  1  0
 12 13  1  0
 13 14  1  0
 14 15  1  0
 15 16  2  0
 16 17  1  0
 17 18  2  0
 18 19  1  0
 19 20  1  0
 20 21  1  0
 21 22  1  0
 22 23  1  0
 23 24  2  0
 23 25  1  0
 25 26  1  0
 26 27  2  0
 19 28  2  0
 14 29  2  0
 29 30  1  0
 30 31  1  0
 31 32  2  0
  5 33  1  0
 33 34  2  0
 34  3  1  0
 32 10  1  0
 30 12  2  0
 28 15  1  0
 26 20  1  0
  1 35  1  0
  1 36  1  0
  1 37  1  0
  2 38  1  0
  2 39  1  0
  4 40  1  0
 11 41  1  0
 16 42  1  0
 17 43  1  0
 18 44  1  0
 21 45  1  0
 21 46  1  0
 22 47  1  0
 22 48  1  0
 25 49  1  0
 28 50  1  0
 29 51  1  0
 31 52  1  0
 33 53  1  0
M  END
>  <meeko>  (415) 
{"is_sidechain": [true], "free_energy": -12.68, "intermolecular_energy": 0.0, "internal_energy": -12.68, "cluster_size": 19, "cluster_id": 1, "rank_in_cluster": 1}

>  <_RMSD_MCS_to_ref>  (415) 
0.806399714781696

$$$$
ligand
     RDKit          3D

 61 66  0  0  0  0  0  0  0  0999 V2000
   24.8710    9.6160    7.7820 C   0  0  0  0  0  0  0  0  0  0  0  0
   25.4240   10.9650    7.3490 C   0  0  0  0  0  0  0  0  0  0  0  0
   26.8410   11.1510    7.7650 C   0  0  0  0  0  0  0  0  0  0  0  0
   27.3410   11.7540    8.9010 C   0  0  0  0  0  0  0  0  0  0  0  0
   28.6950   11.6130    8.7870 N   0  0  0  0  0  0  0  0  0  0  0  0
   29.8490   12.3630    9.7610 S   0  0  0  0  0  6  0  0  0  0  0  0
   31.1240   11.9290    9.2190 O   0  0  0  0  0  0  0  0  0  0  0  0
   29.4500   12.0420   11.1180 O   0  0  0  0  0  0  0  0  0  0  0  0
   29.6690   13.9640    9.5100 O   0  0  0  0  0  0  0  0  0  0  0  0
   28.5160   14.5060    9.0000 C   0  0  0  0  0  0  0  0  0  0  0  0
   27.3560   14.7590    9.7310 C   0  0  0  0  0  0  0  0  0  0  0  0
   26.2140   15.3200    9.1270 C   0  0  0  0  0  0  0  0  0  0  0  0
   25.0020   15.6070    9.8870 C   0  0  0  0  0  0  0  0  0  0  0  0
   23.7320   15.2550    9.3910 C   0  0  0  0  0  0  0  0  0  0  0  0
   22.5530   15.5500   10.1020 C   0  0  0  0  0  0  0  0  0  0  0  0
   22.6120   16.2070   11.3300 C   0  0  0  0  0  0  0  0  0  0  0  0
   23.8630   16.5360   11.8100 C   0  0  0  0  0  0  0  0  0  0  0  0
   25.0420   16.2470   11.1210 C   0  0  0  0  0  0  0  0  0  0  0  0
   26.2180   16.7310   11.9050 C   0  0  0  0  0  0  0  0  0  0  0  0
   25.6020   17.2760   13.1090 N   0  0  0  0  0  0  0  0  0  0  0  0
   26.3060   18.1470   14.0400 C   0  0  1  0  0  0  0  0  0  0  0  0
   25.6970   19.5430   14.1120 C   0  0  0  0  0  0  0  0  0  0  0  0
   26.5320   20.4120   15.0400 C   0  0  0  0  0  0  0  0  0  0  0  0
   26.6650   19.7810   16.4060 C   0  0  0  0  0  0  0  0  0  0  0  0
   26.6970   20.4460   17.4370 O   0  0  0  0  0  0  0  0  0  0  0  0
   26.7700   18.4140   16.4450 N   0  0  0  0  0  0  0  0  0  0  0  0
   26.3530   17.5490   15.4580 C   0  0  0  0  0  0  0  0  0  0  0  0
   26.0400   16.3930   15.7360 O   0  0  0  0  0  0  0  0  0  0  0  0
   24.2170   17.2370   13.0500 C   0  0  0  0  0  0  0  0  0  0  0  0
   23.4210   17.7000   13.8420 O   0  0  0  0  0  0  0  0  0  0  0  0
   26.2920   15.6000    7.7490 C   0  0  0  0  0  0  0  0  0  0  0  0
   25.3510   16.1250    6.8860 N   0  0  0  0  0  0  0  0  0  0  0  0
   25.8720   16.2310    5.6240 C   0  0  0  0  0  0  0  0  0  0  0  0
   27.1610   15.7550    5.6580 C   0  0  0  0  0  0  0  0  0  0  0  0
   27.4380   15.3510    6.9930 C   0  0  0  0  0  0  0  0  0  0  0  0
   28.5630   14.7940    7.6290 C   0  0  0  0  0  0  0  0  0  0  0  0
   28.9820   11.0290    7.5960 C   0  0  0  0  0  0  0  0  0  0  0  0
   27.8740   10.7120    6.9590 N   0  0  0  0  0  0  0  0  0  0  0  0
   24.8497    9.5640    8.8806 H   0  0  0  0  0  0  0  0  0  0  0  0
   23.8507    9.4948    7.3893 H   0  0  0  0  0  0  0  0  0  0  0  0
   25.5127    8.8135    7.3893 H   0  0  0  0  0  0  0  0  0  0  0  0
   25.3641   11.0373    6.2530 H   0  0  0  0  0  0  0  0  0  0  0  0
   24.8236   11.7481    7.8350 H   0  0  0  0  0  0  0  0  0  0  0  0
   26.7780   12.2377    9.7128 H   0  0  0  0  0  0  0  0  0  0  0  0
   27.3322   14.5150   10.8033 H   0  0  0  0  0  0  0  0  0  0  0  0
   23.6591   14.7365    8.4236 H   0  0  0  0  0  0  0  0  0  0  0  0
   21.5774   15.2596    9.6850 H   0  0  0  0  0  0  0  0  0  0  0  0
   21.6994   16.4529   11.8928 H   0  0  0  0  0  0  0  0  0  0  0  0
   26.8995   15.9027   12.1489 H   0  0  0  0  0  0  0  0  0  0  0  0
   26.8325   17.4633   11.3607 H   0  0  0  0  0  0  0  0  0  0  0  0
   27.3291   18.2321   13.6451 H   0  0  0  0  0  0  0  0  0  0  0  0
   25.6820   19.9890   13.1066 H   0  0  0  0  0  0  0  0  0  0  0  0
   24.6692   19.4757   14.4981 H   0  0  0  0  0  0  0  0  0  0  0  0
   27.5342   20.5414   14.6053 H   0  0  0  0  0  0  0  0  0  0  0  0
   26.0298   21.3842   15.1526 H   0  0  0  0  0  0  0  0  0  0  0  0
   27.1976   17.9986   17.2849 H   0  0  0  0  0  0  0  0  0  0  0  0
   24.3944   16.3978    7.1530 H   0  0  0  0  0  0  0  0  0  0  0  0
   25.3512   16.6269    4.7397 H   0  0  0  0  0  0  0  0  0  0  0  0
   27.8539   15.6970    4.8056 H   0  0  0  0  0  0  0  0  0  0  0  0
   29.4761   14.5853    7.0522 H   0  0  0  0  0  0  0  0  0  0  0  0
   29.9980   10.8461    7.2160 H   0  0  0  0  0  0  0  0  0  0  0  0
  1  2  1  0
  2  3  1  0
  3  4  2  0
  4  5  1  0
  5  6  1  0
  6  7  2  0
  6  8  2  0
  6  9  1  0
  9 10  1  0
 10 11  2  0
 11 12  1  0
 12 13  1  0
 13 14  2  0
 14 15  1  0
 15 16  2  0
 16 17  1  0
 17 18  2  0
 18 19  1  0
 19 20  1  0
 20 21  1  0
 21 22  1  0
 22 23  1  0
 23 24  1  0
 24 25  2  0
 24 26  1  0
 26 27  1  0
 27 28  2  0
 20 29  1  0
 29 30  2  0
 12 31  2  0
 31 32  1  0
 32 33  1  0
 33 34  2  0
 34 35  1  0
 35 36  2  0
  5 37  1  0
 37 38  2  0
 38  3  1  0
 36 10  1  0
 18 13  1  0
 27 21  1  0
 35 31  1  0
 29 17  1  0
  1 39  1  0
  1 40  1  0
  1 41  1  0
  2 42  1  0
  2 43  1  0
  4 44  1  0
 11 45  1  0
 14 46  1  0
 15 47  1  0
 16 48  1  0
 19 49  1  0
 19 50  1  0
 21 51  1  6
 22 52  1  0
 22 53  1  0
 23 54  1  0
 23 55  1  0
 26 56  1  0
 32 57  1  0
 33 58  1  0
 34 59  1  0
 36 60  1  0
 37 61  1  0
M  END
>  <meeko>  (416) 
{"is_sidechain": [true], "free_energy": -12.67, "intermolecular_energy": 0.0, "internal_energy": -12.67, "cluster_size": 14, "cluster_id": 1, "rank_in_cluster": 1}

>  <_RMSD_MCS_to_ref>  (416) 
1.922380858900407

$$$$
ligand
     RDKit          3D

 65 69  0  0  0  0  0  0  0  0999 V2000
   24.8540    9.4020    7.6050 C   0  0  0  0  0  0  0  0  0  0  0  0
   25.5230   10.7550    7.4270 C   0  0  0  0  0  0  0  0  0  0  0  0
   26.9690   10.7230    7.7800 C   0  0  0  0  0  0  0  0  0  0  0  0
   27.7840   11.7640    8.1750 C   0  0  0  0  0  0  0  0  0  0  0  0
   28.9930   11.1770    8.4120 N   0  0  0  0  0  0  0  0  0  0  0  0
   30.4500   11.9750    8.6940 S   0  0  0  0  0  6  0  0  0  0  0  0
   31.2500   11.7170    7.5130 O   0  0  0  0  0  0  0  0  0  0  0  0
   30.8690   11.5980   10.0280 O   0  0  0  0  0  0  0  0  0  0  0  0
   29.9740   13.6820    8.7080 C   0  0  0  0  0  0  0  0  0  0  0  0
   30.5440   14.5430    9.6450 C   0  0  0  0  0  0  0  0  0  0  0  0
   30.0820   15.8540    9.7360 C   0  0  0  0  0  0  0  0  0  0  0  0
   29.0480   16.3100    8.8980 C   0  0  0  0  0  0  0  0  0  0  0  0
   28.5150   15.4490    7.9170 C   0  0  0  0  0  0  0  0  0  0  0  0
   28.9940   14.1360    7.8210 C   0  0  0  0  0  0  0  0  0  0  0  0
   27.4620   15.9180    6.9430 C   0  0  0  0  0  0  0  0  0  0  0  0
   26.6480   17.0980    7.4630 C   0  0  0  0  0  0  0  0  0  0  0  0
   27.5630   18.1900    8.0060 C   0  0  0  0  0  0  0  0  0  0  0  0
   28.4460   17.6880    9.1570 C   0  0  1  0  0  0  0  0  0  0  0  0
   27.6640   17.7570   10.4910 C   0  0  0  0  0  0  0  0  0  0  0  0
   28.1710   18.2980   11.4720 O   0  0  0  0  0  0  0  0  0  0  0  0
   26.3970   17.2030   10.4380 N   0  0  0  0  0  0  0  0  0  0  0  0
   25.4740   17.0260   11.4850 C   0  0  0  0  0  0  0  0  0  0  0  0
   24.3610   16.1930   11.4200 C   0  0  0  0  0  0  0  0  0  0  0  0
   23.4880   16.1060   12.5070 C   0  0  0  0  0  0  0  0  0  0  0  0
   23.7140   16.8580   13.6610 C   0  0  0  0  0  0  0  0  0  0  0  0
   24.8290   17.6990   13.7510 C   0  0  0  0  0  0  0  0  0  0  0  0
   25.0780   18.5930   14.9550 C   0  0  1  0  0  0  0  0  0  0  0  0
   26.1310   17.9500   15.8630 C   0  0  0  0  0  0  0  0  0  0  0  0
   26.3210   18.7950   17.1110 C   0  0  0  0  0  0  0  0  0  0  0  0
   26.7110   20.2060   16.7500 C   0  0  0  0  0  0  0  0  0  0  0  0
   27.3470   20.9290   17.5110 O   0  0  0  0  0  0  0  0  0  0  0  0
   26.2640   20.6730   15.5390 N   0  0  0  0  0  0  0  0  0  0  0  0
   25.4780   20.0260   14.6120 C   0  0  0  0  0  0  0  0  0  0  0  0
   25.0920   20.6280   13.6130 O   0  0  0  0  0  0  0  0  0  0  0  0
   25.7040   17.7670   12.6530 C   0  0  0  0  0  0  0  0  0  0  0  0
   28.9060    9.8510    8.1230 C   0  0  0  0  0  0  0  0  0  0  0  0
   27.6880    9.5410    7.7230 N   0  0  0  0  0  0  0  0  0  0  0  0
   24.7464    9.1845    8.6779 H   0  0  0  0  0  0  0  0  0  0  0  0
   23.8606    9.4192    7.1330 H   0  0  0  0  0  0  0  0  0  0  0  0
   25.4708    8.6230    7.1330 H   0  0  0  0  0  0  0  0  0  0  0  0
   25.4225   11.0634    6.3759 H   0  0  0  0  0  0  0  0  0  0  0  0
   25.0277   11.4662    8.1044 H   0  0  0  0  0  0  0  0  0  0  0  0
   27.5191   12.8268    8.2760 H   0  0  0  0  0  0  0  0  0  0  0  0
   31.3501   14.1907   10.3054 H   0  0  0  0  0  0  0  0  0  0  0  0
   30.5301   16.5395   10.4704 H   0  0  0  0  0  0  0  0  0  0  0  0
   28.5985   13.4619    7.0469 H   0  0  0  0  0  0  0  0  0  0  0  0
   27.9588   16.2200    6.0092 H   0  0  0  0  0  0  0  0  0  0  0  0
   26.7643   15.0820    6.7872 H   0  0  0  0  0  0  0  0  0  0  0  0
   26.0439   17.5095    6.6410 H   0  0  0  0  0  0  0  0  0  0  0  0
   25.9976   16.7460    8.2773 H   0  0  0  0  0  0  0  0  0  0  0  0
   28.2112   18.5462    7.1918 H   0  0  0  0  0  0  0  0  0  0  0  0
   26.9282   18.9993    8.3959 H   0  0  0  0  0  0  0  0  0  0  0  0
   29.3136   18.3603    9.2300 H   0  0  0  0  0  0  0  0  0  0  0  0
   26.0893   16.8776    9.5105 H   0  0  0  0  0  0  0  0  0  0  0  0
   24.1686   15.6027   10.5120 H   0  0  0  0  0  0  0  0  0  0  0  0
   22.6149   15.4391   12.4531 H   0  0  0  0  0  0  0  0  0  0  0  0
   23.0116   16.7892   14.5047 H   0  0  0  0  0  0  0  0  0  0  0  0
   24.1129   18.6781   15.4759 H   0  0  0  0  0  0  0  0  0  0  0  0
   25.7976   16.9423   16.1518 H   0  0  0  0  0  0  0  0  0  0  0  0
   27.0858   17.8839   15.3209 H   0  0  0  0  0  0  0  0  0  0  0  0
   25.3792   18.8156   17.6790 H   0  0  0  0  0  0  0  0  0  0  0  0
   27.1250   18.3518   17.7170 H   0  0  0  0  0  0  0  0  0  0  0  0
   26.5537   21.6301   15.2922 H   0  0  0  0  0  0  0  0  0  0  0  0
   26.5898   18.4166   12.7114 H   0  0  0  0  0  0  0  0  0  0  0  0
   29.7369    9.1356    8.2107 H   0  0  0  0  0  0  0  0  0  0  0  0
  1  2  1  0
  2  3  1  0
  3  4  2  0
  4  5  1  0
  5  6  1  0
  6  7  2  0
  6  8  2  0
  6  9  1  0
  9 10  2  0
 10 11  1  0
 11 12  2  0
 12 13  1  0
 13 14  2  0
 13 15  1  0
 15 16  1  0
 16 17  1  0
 17 18  1  0
 18 19  1  0
 19 20  2  0
 19 21  1  0
 21 22  1  0
 22 23  2  0
 23 24  1  0
 24 25  2  0
 25 26  1  0
 26 27  1  0
 27 28  1  0
 28 29  1  0
 29 30  1  0
 30 31  2  0
 30 32  1  0
 32 33  1  0
 33 34  2  0
 26 35  2  0
  5 36  1  0
 36 37  2  0
 37  3  1  0
 14  9  1  0
 35 22  1  0
 18 12  1  0
 33 27  1  0
  1 38  1  0
  1 39  1  0
  1 40  1  0
  2 41  1  0
  2 42  1  0
  4 43  1  0
 10 44  1  0
 11 45  1  0
 14 46  1  0
 15 47  1  0
 15 48  1  0
 16 49  1  0
 16 50  1  0
 17 51  1  0
 17 52  1  0
 18 53  1  1
 21 54  1  0
 23 55  1  0
 24 56  1  0
 25 57  1  0
 27 58  1  1
 28 59  1  0
 28 60  1  0
 29 61  1  0
 29 62  1  0
 32 63  1  0
 35 64  1  0
 36 65  1  0
M  END
>  <meeko>  (417) 
{"is_sidechain": [true], "free_energy": -12.66, "intermolecular_energy": 0.0, "internal_energy": -12.66, "cluster_size": 10, "cluster_id": 1, "rank_in_cluster": 1}

>  <_RMSD_MCS_to_ref>  (417) 
0.4702682744987152

$$$$
ligand
     RDKit          3D

 58 62  0  0  0  0  0  0  0  0999 V2000
   24.8540    9.4020    7.6050 C   0  0  0  0  0  0  0  0  0  0  0  0
   25.5230   10.7550    7.4270 C   0  0  0  0  0  0  0  0  0  0  0  0
   26.9990   10.6370    7.2740 C   0  0  0  0  0  0  0  0  0  0  0  0
   27.8240   11.2200    6.3320 C   0  0  0  0  0  0  0  0  0  0  0  0
   29.0690   10.7520    6.6410 N   0  0  0  0  0  0  0  0  0  0  0  0
   30.5200   11.3020    5.9830 S   0  0  0  0  0  6  0  0  0  0  0  0
   31.5520   10.6440    6.7650 O   0  0  0  0  0  0  0  0  0  0  0  0
   30.3860   11.0730    4.5570 O   0  0  0  0  0  0  0  0  0  0  0  0
   30.5630   12.9050    6.2730 O   0  0  0  0  0  0  0  0  0  0  0  0
   29.8620   13.4920    7.2950 C   0  0  0  0  0  0  0  0  0  0  0  0
   30.3880   13.8590    8.5350 C   0  0  0  0  0  0  0  0  0  0  0  0
   29.5670   14.4510    9.5040 C   0  0  0  0  0  0  0  0  0  0  0  0
   28.2190   14.6990    9.2390 C   0  0  0  0  0  0  0  0  0  0  0  0
   27.3790   15.2300   10.2230 N   0  0  0  0  0  0  0  0  0  0  0  0
   26.0290   15.5720    9.9920 C   0  0  0  0  0  0  0  0  0  0  0  0
   25.2270   16.1750   10.9820 C   0  0  0  0  0  0  0  0  0  0  0  0
   25.8320   16.5380   12.2970 C   0  0  0  0  0  0  0  0  0  0  0  0
   26.2880   15.6660   13.0310 O   0  0  0  0  0  0  0  0  0  0  0  0
   25.8210   17.8680   12.6420 N   0  0  0  0  0  0  0  0  0  0  0  0
   26.4570   18.3540   13.8590 C   0  0  2  0  0  0  0  0  0  0  0  0
   25.9540   17.6330   15.1040 C   0  0  0  0  0  0  0  0  0  0  0  0
   26.6380   18.2110   16.3340 C   0  0  0  0  0  0  0  0  0  0  0  0
   26.4370   19.7050   16.4220 C   0  0  0  0  0  0  0  0  0  0  0  0
   26.3140   20.2910   17.4930 O   0  0  0  0  0  0  0  0  0  0  0  0
   26.4230   20.3940   15.2360 N   0  0  0  0  0  0  0  0  0  0  0  0
   26.1640   19.8510   14.0030 C   0  0  0  0  0  0  0  0  0  0  0  0
   25.7210   20.5380   13.0830 O   0  0  0  0  0  0  0  0  0  0  0  0
   23.8770   16.4650   10.7130 C   0  0  0  0  0  0  0  0  0  0  0  0
   23.3090   16.1160    9.4860 C   0  0  0  0  0  0  0  0  0  0  0  0
   24.0820   15.4820    8.5170 C   0  0  0  0  0  0  0  0  0  0  0  0
   25.4310   15.2110    8.7710 C   0  0  0  0  0  0  0  0  0  0  0  0
   26.2570   14.5440    7.7310 C   0  0  0  0  0  0  0  0  0  0  0  0
   25.7600   14.2010    6.6630 O   0  0  0  0  0  0  0  0  0  0  0  0
   27.6960   14.3060    8.0010 C   0  0  0  0  0  0  0  0  0  0  0  0
   28.5090   13.7140    7.0310 C   0  0  0  0  0  0  0  0  0  0  0  0
   28.9920    9.9950    7.7660 C   0  0  0  0  0  0  0  0  0  0  0  0
   27.7400    9.8810    8.1610 N   0  0  0  0  0  0  0  0  0  0  0  0
   24.7464    9.1845    8.6779 H   0  0  0  0  0  0  0  0  0  0  0  0
   23.8606    9.4192    7.1330 H   0  0  0  0  0  0  0  0  0  0  0  0
   25.4708    8.6230    7.1330 H   0  0  0  0  0  0  0  0  0  0  0  0
   25.1113   11.2382    6.5287 H   0  0  0  0  0  0  0  0  0  0  0  0
   25.3238   11.3514    8.3295 H   0  0  0  0  0  0  0  0  0  0  0  0
   27.5424   11.9049    5.5186 H   0  0  0  0  0  0  0  0  0  0  0  0
   31.4518   13.6826    8.7523 H   0  0  0  0  0  0  0  0  0  0  0  0
   29.9887   14.7229   10.4829 H   0  0  0  0  0  0  0  0  0  0  0  0
   27.7657   15.3794   11.1659 H   0  0  0  0  0  0  0  0  0  0  0  0
   25.3490   18.5413   12.0217 H   0  0  0  0  0  0  0  0  0  0  0  0
   27.5368   18.1620   13.7740 H   0  0  0  0  0  0  0  0  0  0  0  0
   24.8659   17.7680   15.1918 H   0  0  0  0  0  0  0  0  0  0  0  0
   26.1845   16.5603   15.0256 H   0  0  0  0  0  0  0  0  0  0  0  0
   26.2162   17.7390   17.2336 H   0  0  0  0  0  0  0  0  0  0  0  0
   27.7167   18.0095   16.2584 H   0  0  0  0  0  0  0  0  0  0  0  0
   26.6237   21.4035   15.2743 H   0  0  0  0  0  0  0  0  0  0  0  0
   23.2646   16.9702   11.4744 H   0  0  0  0  0  0  0  0  0  0  0  0
   22.2513   16.3419    9.2851 H   0  0  0  0  0  0  0  0  0  0  0  0
   23.6335   15.1950    7.5545 H   0  0  0  0  0  0  0  0  0  0  0  0
   28.0832   13.4229    6.0595 H   0  0  0  0  0  0  0  0  0  0  0  0
   29.8542    9.5406    8.2761 H   0  0  0  0  0  0  0  0  0  0  0  0
  1  2  1  0
  2  3  1  0
  3  4  2  0
  4  5  1  0
  5  6  1  0
  6  7  2  0
  6  8  2  0
  6  9  1  0
  9 10  1  0
 10 11  2  0
 11 12  1  0
 12 13  2  0
 13 14  1  0
 14 15  1  0
 15 16  2  0
 16 17  1  0
 17 18  2  0
 17 19  1  0
 19 20  1  0
 20 21  1  0
 21 22  1  0
 22 23  1  0
 23 24  2  0
 23 25  1  0
 25 26  1  0
 26 27  2  0
 16 28  1  0
 28 29  2  0
 29 30  1  0
 30 31  2  0
 31 32  1  0
 32 33  2  0
 32 34  1  0
 34 35  2  0
  5 36  1  0
 36 37  2  0
 37  3  1  0
 35 10  1  0
 34 13  1  0
 31 15  1  0
 26 20  1  0
  1 38  1  0
  1 39  1  0
  1 40  1  0
  2 41  1  0
  2 42  1  0
  4 43  1  0
 11 44  1  0
 12 45  1  0
 14 46  1  0
 19 47  1  0
 20 48  1  6
 21 49  1  0
 21 50  1  0
 22 51  1  0
 22 52  1  0
 25 53  1  0
 28 54  1  0
 29 55  1  0
 30 56  1  0
 35 57  1  0
 36 58  1  0
M  END
>  <meeko>  (418) 
{"is_sidechain": [true], "free_energy": -12.66, "intermolecular_energy": 0.0, "internal_energy": -12.66, "cluster_size": 18, "cluster_id": 1, "rank_in_cluster": 1}

>  <_RMSD_MCS_to_ref>  (418) 
1.0627116782604349

$$$$
ligand
     RDKit          3D

 54 58  0  0  0  0  0  0  0  0999 V2000
   24.8540    9.4020    7.6050 C   0  0  0  0  0  0  0  0  0  0  0  0
   25.5230   10.7550    7.4270 C   0  0  0  0  0  0  0  0  0  0  0  0
   24.9970   11.4920    6.2450 C   0  0  0  0  0  0  0  0  0  0  0  0
   25.6930   12.1570    5.2550 C   0  0  0  0  0  0  0  0  0  0  0  0
   24.7200   12.6220    4.4170 N   0  0  0  0  0  0  0  0  0  0  0  0
   24.9500   13.6980    3.1410 S   0  0  0  0  0  6  0  0  0  0  0  0
   23.6130   13.9950    2.6620 O   0  0  0  0  0  0  0  0  0  0  0  0
   25.9290   13.0510    2.2850 O   0  0  0  0  0  0  0  0  0  0  0  0
   25.6020   15.0320    3.7920 O   0  0  0  0  0  0  0  0  0  0  0  0
   25.7030   15.1800    5.1190 C   0  0  0  0  0  0  0  0  0  0  0  0
   24.7700   15.5910    6.0860 C   0  0  0  0  0  0  0  0  0  0  0  0
   25.4570   15.5520    7.2870 C   0  0  0  0  0  0  0  0  0  0  0  0
   25.0330   15.8510    8.6530 C   0  0  0  0  0  0  0  0  0  0  0  0
   23.7730   15.4190    9.1310 C   0  0  0  0  0  0  0  0  0  0  0  0
   23.3560   15.7030   10.4360 C   0  0  0  0  0  0  0  0  0  0  0  0
   24.2230   16.4140   11.2390 C   0  0  0  0  0  0  0  0  0  0  0  0
   25.4700   16.8490   10.7980 C   0  0  0  0  0  0  0  0  0  0  0  0
   25.8890   16.5730    9.5070 C   0  0  0  0  0  0  0  0  0  0  0  0
   26.1600   17.6060   11.8830 C   0  0  0  0  0  0  0  0  0  0  0  0
   25.2330   17.4750   13.0010 N   0  0  0  0  0  0  0  0  0  0  0  0
   25.3350   18.2590   14.2260 C   0  0  1  0  0  0  0  0  0  0  0  0
   26.2980   17.6410   15.2360 C   0  0  0  0  0  0  0  0  0  0  0  0
   26.2820   18.4640   16.5160 C   0  0  0  0  0  0  0  0  0  0  0  0
   26.6070   19.9120   16.2390 C   0  0  0  0  0  0  0  0  0  0  0  0
   27.2560   20.6020   17.0200 O   0  0  0  0  0  0  0  0  0  0  0  0
   26.1250   20.4360   15.0650 N   0  0  0  0  0  0  0  0  0  0  0  0
   25.7630   19.7110   13.9530 C   0  0  0  0  0  0  0  0  0  0  0  0
   25.8030   20.2260   12.8370 O   0  0  0  0  0  0  0  0  0  0  0  0
   24.0510   16.8520   12.6290 C   0  0  0  0  0  0  0  0  0  0  0  0
   23.0480   16.6830   13.2940 O   0  0  0  0  0  0  0  0  0  0  0  0
   26.7170   15.1130    6.9540 N   0  0  0  0  0  0  0  0  0  0  0  0
   26.8920   14.8920    5.6400 N   0  0  0  0  0  0  0  0  0  0  0  0
   23.5040   12.3180    4.9360 C   0  0  0  0  0  0  0  0  0  0  0  0
   23.6370   11.6030    6.0340 N   0  0  0  0  0  0  0  0  0  0  0  0
   24.7464    9.1845    8.6779 H   0  0  0  0  0  0  0  0  0  0  0  0
   23.8606    9.4192    7.1330 H   0  0  0  0  0  0  0  0  0  0  0  0
   25.4708    8.6230    7.1330 H   0  0  0  0  0  0  0  0  0  0  0  0
   25.3454   11.3592    8.3289 H   0  0  0  0  0  0  0  0  0  0  0  0
   26.5973   10.5817    7.2659 H   0  0  0  0  0  0  0  0  0  0  0  0
   26.7818   12.2833    5.1625 H   0  0  0  0  0  0  0  0  0  0  0  0
   23.7213   15.8808    5.9238 H   0  0  0  0  0  0  0  0  0  0  0  0
   23.1091   14.8493    8.4641 H   0  0  0  0  0  0  0  0  0  0  0  0
   22.3748   15.3721   10.8071 H   0  0  0  0  0  0  0  0  0  0  0  0
   26.8742   16.9122    9.1545 H   0  0  0  0  0  0  0  0  0  0  0  0
   27.1357   17.1576   12.1215 H   0  0  0  0  0  0  0  0  0  0  0  0
   26.3794   18.6504   11.6166 H   0  0  0  0  0  0  0  0  0  0  0  0
   24.3223   18.2574   14.6555 H   0  0  0  0  0  0  0  0  0  0  0  0
   25.9854   16.6100   15.4583 H   0  0  0  0  0  0  0  0  0  0  0  0
   27.3150   17.6317   14.8170 H   0  0  0  0  0  0  0  0  0  0  0  0
   25.2821   18.4014   16.9702 H   0  0  0  0  0  0  0  0  0  0  0  0
   27.0444   18.0606   17.1986 H   0  0  0  0  0  0  0  0  0  0  0  0
   26.0259   21.4599   15.0122 H   0  0  0  0  0  0  0  0  0  0  0  0
   27.4614   14.9664    7.6506 H   0  0  0  0  0  0  0  0  0  0  0  0
   22.5418   12.6256    4.5007 H   0  0  0  0  0  0  0  0  0  0  0  0
  1  2  1  0
  2  3  1  0
  3  4  2  0
  4  5  1  0
  5  6  1  0
  6  7  2  0
  6  8  2  0
  6  9  1  0
  9 10  1  0
 10 11  1  0
 11 12  2  0
 12 13  1  0
 13 14  2  0
 14 15  1  0
 15 16  2  0
 16 17  1  0
 17 18  2  0
 17 19  1  0
 19 20  1  0
 20 21  1  0
 21 22  1  0
 22 23  1  0
 23 24  1  0
 24 25  2  0
 24 26  1  0
 26 27  1  0
 27 28  2  0
 20 29  1  0
 29 30  2  0
 12 31  1  0
 31 32  1  0
  5 33  1  0
 33 34  2  0
 34  3  1  0
 32 10  2  0
 18 13  1  0
 27 21  1  0
 29 16  1  0
  1 35  1  0
  1 36  1  0
  1 37  1  0
  2 38  1  0
  2 39  1  0
  4 40  1  0
 11 41  1  0
 14 42  1  0
 15 43  1  0
 18 44  1  0
 19 45  1  0
 19 46  1  0
 21 47  1  1
 22 48  1  0
 22 49  1  0
 23 50  1  0
 23 51  1  0
 26 52  1  0
 31 53  1  0
 33 54  1  0
M  END
>  <meeko>  (419) 
{"is_sidechain": [true], "free_energy": -12.66, "intermolecular_energy": 0.0, "internal_energy": -12.66, "cluster_size": 20, "cluster_id": 1, "rank_in_cluster": 1}

>  <_RMSD_MCS_to_ref>  (419) 
0.7263178061672145

$$$$
ligand
     RDKit          3D

 58 62  0  0  0  0  0  0  0  0999 V2000
   24.8540    9.4020    7.6050 C   0  0  0  0  0  0  0  0  0  0  0  0
   25.5230   10.7550    7.4270 C   0  0  0  0  0  0  0  0  0  0  0  0
   24.9920   11.4930    6.2490 C   0  0  0  0  0  0  0  0  0  0  0  0
   25.2330   12.7970    5.8600 C   0  0  0  0  0  0  0  0  0  0  0  0
   24.4910   12.9490    4.7240 N   0  0  0  0  0  0  0  0  0  0  0  0
   24.4620   14.3000    3.7280 S   0  0  0  0  0  6  0  0  0  0  0  0
   23.6780   15.2990    4.4400 O   0  0  0  0  0  0  0  0  0  0  0  0
   24.0900   13.8090    2.4170 O   0  0  0  0  0  0  0  0  0  0  0  0
   26.1190   14.9030    3.6590 C   0  0  0  0  0  0  0  0  0  0  0  0
   26.7950   14.5230    2.5380 N   0  0  0  0  0  0  0  0  0  0  0  0
   28.0570   14.9830    2.4070 C   0  0  0  0  0  0  0  0  0  0  0  0
   28.6710   15.7980    3.3430 C   0  0  0  0  0  0  0  0  0  0  0  0
   27.9530   16.1570    4.4840 C   0  0  0  0  0  0  0  0  0  0  0  0
   26.6440   15.6920    4.6690 C   0  0  0  0  0  0  0  0  0  0  0  0
   25.9280   16.1320    5.8870 C   0  0  0  0  0  0  0  0  0  0  0  0
   24.9770   16.8870    5.7170 O   0  0  0  0  0  0  0  0  0  0  0  0
   26.4410   15.7120    7.0990 N   0  0  0  0  0  0  0  0  0  0  0  0
   25.9210   15.9920    8.3830 C   0  0  0  0  0  0  0  0  0  0  0  0
   24.6390   15.4600    8.6740 C   0  0  0  0  0  0  0  0  0  0  0  0
   24.0200   15.6710    9.9130 C   0  0  0  0  0  0  0  0  0  0  0  0
   24.7130   16.4200   10.8390 C   0  0  0  0  0  0  0  0  0  0  0  0
   25.9600   16.9460   10.5640 C   0  0  0  0  0  0  0  0  0  0  0  0
   26.5910   16.7540    9.3480 C   0  0  0  0  0  0  0  0  0  0  0  0
   26.3930   17.6870   11.7490 C   0  0  0  0  0  0  0  0  0  0  0  0
   27.4290   18.3180   11.8250 O   0  0  0  0  0  0  0  0  0  0  0  0
   25.4110   17.5320   12.6900 N   0  0  0  0  0  0  0  0  0  0  0  0
   25.3670   18.2190   13.9730 C   0  0  1  0  0  0  0  0  0  0  0  0
   26.2910   17.6290   15.0340 C   0  0  0  0  0  0  0  0  0  0  0  0
   26.1250   18.4080   16.3300 C   0  0  0  0  0  0  0  0  0  0  0  0
   26.3870   19.8820   16.1230 C   0  0  0  0  0  0  0  0  0  0  0  0
   26.7850   20.6100   17.0280 O   0  0  0  0  0  0  0  0  0  0  0  0
   26.0990   20.3900   14.8800 N   0  0  0  0  0  0  0  0  0  0  0  0
   25.6830   19.7040   13.7610 C   0  0  0  0  0  0  0  0  0  0  0  0
   25.5210   20.2930   12.6940 O   0  0  0  0  0  0  0  0  0  0  0  0
   24.3530   16.8170   12.1970 C   0  0  0  0  0  0  0  0  0  0  0  0
   23.3040   16.5300   12.7410 O   0  0  0  0  0  0  0  0  0  0  0  0
   23.8690   11.7760    4.4360 C   0  0  0  0  0  0  0  0  0  0  0  0
   24.1420   10.8720    5.3560 N   0  0  0  0  0  0  0  0  0  0  0  0
   24.7464    9.1845    8.6779 H   0  0  0  0  0  0  0  0  0  0  0  0
   23.8606    9.4192    7.1330 H   0  0  0  0  0  0  0  0  0  0  0  0
   25.4708    8.6230    7.1330 H   0  0  0  0  0  0  0  0  0  0  0  0
   25.3494   11.3578    8.3306 H   0  0  0  0  0  0  0  0  0  0  0  0
   26.5967   10.5821    7.2618 H   0  0  0  0  0  0  0  0  0  0  0  0
   25.8754   13.5418    6.3527 H   0  0  0  0  0  0  0  0  0  0  0  0
   28.6269   14.6959    1.5110 H   0  0  0  0  0  0  0  0  0  0  0  0
   29.7006   16.1540    3.1905 H   0  0  0  0  0  0  0  0  0  0  0  0
   28.4159   16.8072    5.2409 H   0  0  0  0  0  0  0  0  0  0  0  0
   27.2925   15.1336    7.0631 H   0  0  0  0  0  0  0  0  0  0  0  0
   24.1178   14.8671    7.9080 H   0  0  0  0  0  0  0  0  0  0  0  0
   23.0255   15.2574   10.1365 H   0  0  0  0  0  0  0  0  0  0  0  0
   27.5831   17.1843    9.1465 H   0  0  0  0  0  0  0  0  0  0  0  0
   24.3480   18.0857   14.3651 H   0  0  0  0  0  0  0  0  0  0  0  0
   26.0307   16.5737   15.2030 H   0  0  0  0  0  0  0  0  0  0  0  0
   27.3349   17.6955   14.6937 H   0  0  0  0  0  0  0  0  0  0  0  0
   25.0971   18.2752   16.6986 H   0  0  0  0  0  0  0  0  0  0  0  0
   26.8532   18.0255   17.0603 H   0  0  0  0  0  0  0  0  0  0  0  0
   26.2074   21.4085   14.7716 H   0  0  0  0  0  0  0  0  0  0  0  0
   23.2279   11.6046    3.5587 H   0  0  0  0  0  0  0  0  0  0  0  0
  1  2  1  0
  2  3  1  0
  3  4  2  0
  4  5  1  0
  5  6  1  0
  6  7  2  0
  6  8  2  0
  6  9  1  0
  9 10  2  0
 10 11  1  0
 11 12  2  0
 12 13  1  0
 13 14  2  0
 14 15  1  0
 15 16  2  0
 15 17  1  0
 17 18  1  0
 18 19  2  0
 19 20  1  0
 20 21  2  0
 21 22  1  0
 22 23  2  0
 22 24  1  0
 24 25  2  0
 24 26  1  0
 26 27  1  0
 27 28  1  0
 28 29  1  0
 29 30  1  0
 30 31  2  0
 30 32  1  0
 32 33  1  0
 33 34  2  0
 26 35  1  0
 35 36  2  0
  5 37  1  0
 37 38  2  0
 38  3  1  0
 14  9  1  0
 23 18  1  0
 33 27  1  0
 35 21  1  0
  1 39  1  0
  1 40  1  0
  1 41  1  0
  2 42  1  0
  2 43  1  0
  4 44  1  0
 11 45  1  0
 12 46  1  0
 13 47  1  0
 17 48  1  0
 19 49  1  0
 20 50  1  0
 23 51  1  0
 27 52  1  1
 28 53  1  0
 28 54  1  0
 29 55  1  0
 29 56  1  0
 32 57  1  0
 37 58  1  0
M  END
>  <meeko>  (420) 
{"is_sidechain": [true], "free_energy": -12.65, "intermolecular_energy": 0.0, "internal_energy": -12.65, "cluster_size": 19, "cluster_id": 1, "rank_in_cluster": 1}

>  <_RMSD_MCS_to_ref>  (420) 
0.8582569545305174

$$$$
ligand
     RDKit          3D

 61 66  0  0  0  0  0  0  0  0999 V2000
   24.8540    9.4020    7.6050 C   0  0  0  0  0  0  0  0  0  0  0  0
   25.5230   10.7550    7.4270 C   0  0  0  0  0  0  0  0  0  0  0  0
   25.9120   11.0090    6.0130 C   0  0  0  0  0  0  0  0  0  0  0  0
   27.1360   11.3970    5.5040 C   0  0  0  0  0  0  0  0  0  0  0  0
   26.9350   11.4530    4.1550 N   0  0  0  0  0  0  0  0  0  0  0  0
   28.0070   12.0920    3.0250 S   0  0  0  0  0  6  0  0  0  0  0  0
   29.2900   11.4800    3.3340 O   0  0  0  0  0  0  0  0  0  0  0  0
   27.3690   11.8840    1.7390 O   0  0  0  0  0  0  0  0  0  0  0  0
   28.0860   13.6980    3.3260 O   0  0  0  0  0  0  0  0  0  0  0  0
   27.4220   14.3060    4.3120 C   0  0  0  0  0  0  0  0  0  0  0  0
   27.5030   14.0940    5.6730 C   0  0  0  0  0  0  0  0  0  0  0  0
   26.6120   14.9930    6.3190 C   0  0  0  0  0  0  0  0  0  0  0  0
   26.2650   15.2340    7.6620 C   0  0  0  0  0  0  0  0  0  0  0  0
   25.3180   16.2280    7.9850 C   0  0  0  0  0  0  0  0  0  0  0  0
   24.9500   16.4820    9.3870 C   0  0  0  0  0  0  0  0  0  0  0  0
   23.6790   16.0870    9.8780 C   0  0  0  0  0  0  0  0  0  0  0  0
   23.3030   16.3190   11.2050 C   0  0  0  0  0  0  0  0  0  0  0  0
   24.2190   16.9500   12.0210 C   0  0  0  0  0  0  0  0  0  0  0  0
   25.4740   17.3520   11.5730 C   0  0  0  0  0  0  0  0  0  0  0  0
   25.8520   17.1260   10.2590 C   0  0  0  0  0  0  0  0  0  0  0  0
   26.2200   18.0250   12.6760 C   0  0  0  0  0  0  0  0  0  0  0  0
   25.3160   17.8740   13.8090 N   0  0  0  0  0  0  0  0  0  0  0  0
   25.4840   18.5810   15.0730 C   0  0  1  0  0  0  0  0  0  0  0  0
   26.6130   18.0000   15.9200 C   0  0  0  0  0  0  0  0  0  0  0  0
   26.6670   18.7260   17.2560 C   0  0  0  0  0  0  0  0  0  0  0  0
   26.8160   20.2170   17.0600 C   0  0  0  0  0  0  0  0  0  0  0  0
   27.4830   20.9150   17.8180 O   0  0  0  0  0  0  0  0  0  0  0  0
   26.1500   20.7650   15.9930 N   0  0  0  0  0  0  0  0  0  0  0  0
   25.7340   20.0850   14.8710 C   0  0  0  0  0  0  0  0  0  0  0  0
   25.5950   20.6780   13.8040 O   0  0  0  0  0  0  0  0  0  0  0  0
   24.0990   17.3210   13.4350 C   0  0  0  0  0  0  0  0  0  0  0  0
   23.1080   17.1600   14.1200 O   0  0  0  0  0  0  0  0  0  0  0  0
   24.7370   16.9680    6.9440 C   0  0  0  0  0  0  0  0  0  0  0  0
   25.0670   16.7500    5.6000 C   0  0  0  0  0  0  0  0  0  0  0  0
   26.0060   15.7530    5.3220 C   0  0  0  0  0  0  0  0  0  0  0  0
   26.5180   15.3250    4.1190 N   0  0  0  0  0  0  0  0  0  0  0  0
   25.6290   11.1900    3.8880 C   0  0  0  0  0  0  0  0  0  0  0  0
   24.9850   10.8870    4.9960 N   0  0  0  0  0  0  0  0  0  0  0  0
   24.7464    9.1845    8.6779 H   0  0  0  0  0  0  0  0  0  0  0  0
   23.8606    9.4192    7.1330 H   0  0  0  0  0  0  0  0  0  0  0  0
   25.4708    8.6230    7.1330 H   0  0  0  0  0  0  0  0  0  0  0  0
   24.8237   11.5409    7.7485 H   0  0  0  0  0  0  0  0  0  0  0  0
   26.4395   10.7608    8.0353 H   0  0  0  0  0  0  0  0  0  0  0  0
   28.0612   11.6118    6.0588 H   0  0  0  0  0  0  0  0  0  0  0  0
   28.1471   13.3554    6.1725 H   0  0  0  0  0  0  0  0  0  0  0  0
   26.7346   14.6443    8.4631 H   0  0  0  0  0  0  0  0  0  0  0  0
   22.9727   15.5866    9.1992 H   0  0  0  0  0  0  0  0  0  0  0  0
   22.3169   16.0108   11.5827 H   0  0  0  0  0  0  0  0  0  0  0  0
   26.8421   17.4446    9.9011 H   0  0  0  0  0  0  0  0  0  0  0  0
   27.1821   17.5269   12.8664 H   0  0  0  0  0  0  0  0  0  0  0  0
   26.4754   19.0722   12.4564 H   0  0  0  0  0  0  0  0  0  0  0  0
   24.5329   18.4452   15.6088 H   0  0  0  0  0  0  0  0  0  0  0  0
   26.4295   16.9290   16.0914 H   0  0  0  0  0  0  0  0  0  0  0  0
   27.5704   18.1273   15.3935 H   0  0  0  0  0  0  0  0  0  0  0  0
   25.7378   18.5277   17.8103 H   0  0  0  0  0  0  0  0  0  0  0  0
   27.5385   18.3589   17.8178 H   0  0  0  0  0  0  0  0  0  0  0  0
   25.9433   21.7732   16.0353 H   0  0  0  0  0  0  0  0  0  0  0  0
   23.9983   17.7447    7.1912 H   0  0  0  0  0  0  0  0  0  0  0  0
   24.6051   17.3405    4.7951 H   0  0  0  0  0  0  0  0  0  0  0  0
   26.2602   15.7137    3.2007 H   0  0  0  0  0  0  0  0  0  0  0  0
   25.1737   11.2252    2.8873 H   0  0  0  0  0  0  0  0  0  0  0  0
  1  2  1  0
  2  3  1  0
  3  4  2  0
  4  5  1  0
  5  6  1  0
  6  7  2  0
  6  8  2  0
  6  9  1  0
  9 10  1  0
 10 11  2  0
 11 12  1  0
 12 13  2  0
 13 14  1  0
 14 15  1  0
 15 16  2  0
 16 17  1  0
 17 18  2  0
 18 19  1  0
 19 20  2  0
 19 21  1  0
 21 22  1  0
 22 23  1  0
 23 24  1  0
 24 25  1  0
 25 26  1  0
 26 27  2  0
 26 28  1  0
 28 29  1  0
 29 30  2  0
 22 31  1  0
 31 32  2  0
 14 33  2  0
 33 34  1  0
 34 35  2  0
 35 36  1  0
  5 37  1  0
 37 38  2  0
 38  3  1  0
 36 10  1  0
 35 12  1  0
 20 15  1  0
 29 23  1  0
 31 18  1  0
  1 39  1  0
  1 40  1  0
  1 41  1  0
  2 42  1  0
  2 43  1  0
  4 44  1  0
 11 45  1  0
 13 46  1  0
 16 47  1  0
 17 48  1  0
 20 49  1  0
 21 50  1  0
 21 51  1  0
 23 52  1  1
 24 53  1  0
 24 54  1  0
 25 55  1  0
 25 56  1  0
 28 57  1  0
 33 58  1  0
 34 59  1  0
 36 60  1  0
 37 61  1  0
M  END
>  <meeko>  (421) 
{"is_sidechain": [true], "free_energy": -12.64, "intermolecular_energy": 0.0, "internal_energy": -12.64, "cluster_size": 15, "cluster_id": 1, "rank_in_cluster": 1}

>  <_RMSD_MCS_to_ref>  (421) 
0.7606514751623542

$$$$
ligand
     RDKit          3D

 59 64  0  0  0  0  0  0  0  0999 V2000
   24.8710    9.6160    7.7820 C   0  0  0  0  0  0  0  0  0  0  0  0
   25.4240   10.9650    7.3490 C   0  0  0  0  0  0  0  0  0  0  0  0
   24.8680   11.4060    6.0400 C   0  0  0  0  0  0  0  0  0  0  0  0
   24.7310   12.6860    5.5400 C   0  0  0  0  0  0  0  0  0  0  0  0
   24.1930   12.5040    4.2980 N   0  0  0  0  0  0  0  0  0  0  0  0
   23.5580   13.7190    3.3170 S   0  0  0  0  0  6  0  0  0  0  0  0
   22.2530   14.0090    3.8800 O   0  0  0  0  0  0  0  0  0  0  0  0
   23.7110   13.2220    1.9630 O   0  0  0  0  0  0  0  0  0  0  0  0
   24.5270   15.0120    3.5220 O   0  0  0  0  0  0  0  0  0  0  0  0
   25.8410   14.9400    3.9530 C   0  0  0  0  0  0  0  0  0  0  0  0
   26.9080   14.6530    3.1760 C   0  0  0  0  0  0  0  0  0  0  0  0
   28.2410   14.6120    3.7620 C   0  0  0  0  0  0  0  0  0  0  0  0
   28.4440   14.8560    5.0690 C   0  0  0  0  0  0  0  0  0  0  0  0
   27.3370   15.1610    5.9060 C   0  0  0  0  0  0  0  0  0  0  0  0
   27.2750   15.4320    7.1920 N   0  0  0  0  0  0  0  0  0  0  0  0
   25.9420   15.6470    7.4660 C   0  0  0  0  0  0  0  0  0  0  0  0
   25.4530   15.9720    8.7980 C   0  0  0  0  0  0  0  0  0  0  0  0
   24.2180   15.4190    9.2310 C   0  0  0  0  0  0  0  0  0  0  0  0
   23.6880   15.6930   10.4980 C   0  0  0  0  0  0  0  0  0  0  0  0
   24.4210   16.5250   11.3170 C   0  0  0  0  0  0  0  0  0  0  0  0
   25.6240   17.0690   10.9100 C   0  0  0  0  0  0  0  0  0  0  0  0
   26.1670   16.8170    9.6620 C   0  0  0  0  0  0  0  0  0  0  0  0
   26.1230   17.8990   12.0030 C   0  0  0  0  0  0  0  0  0  0  0  0
   27.1530   18.5440   11.9570 O   0  0  0  0  0  0  0  0  0  0  0  0
   25.2220   17.7830   13.0280 N   0  0  0  0  0  0  0  0  0  0  0  0
   25.3050   18.5860   14.2400 C   0  0  2  0  0  0  0  0  0  0  0  0
   25.9580   19.9520   14.0450 C   0  0  0  0  0  0  0  0  0  0  0  0
   25.9490   20.7020   15.3680 C   0  0  0  0  0  0  0  0  0  0  0  0
   26.6370   19.9080   16.4540 C   0  0  0  0  0  0  0  0  0  0  0  0
   27.1850   20.4450   17.4130 O   0  0  0  0  0  0  0  0  0  0  0  0
   26.5710   18.5400   16.3520 N   0  0  0  0  0  0  0  0  0  0  0  0
   26.0490   17.7940   15.3190 C   0  0  0  0  0  0  0  0  0  0  0  0
   26.1390   16.5670   15.3300 O   0  0  0  0  0  0  0  0  0  0  0  0
   24.1520   17.0120   12.6680 C   0  0  0  0  0  0  0  0  0  0  0  0
   23.1400   16.7620   13.2940 O   0  0  0  0  0  0  0  0  0  0  0  0
   25.1890   15.5050    6.3190 C   0  0  0  0  0  0  0  0  0  0  0  0
   26.0790   15.1930    5.3160 N   0  0  0  0  0  0  0  0  0  0  0  0
   23.9480   11.1820    4.1080 C   0  0  0  0  0  0  0  0  0  0  0  0
   24.3710   10.4830    5.1400 N   0  0  0  0  0  0  0  0  0  0  0  0
   24.8497    9.5640    8.8806 H   0  0  0  0  0  0  0  0  0  0  0  0
   23.8507    9.4948    7.3893 H   0  0  0  0  0  0  0  0  0  0  0  0
   25.5127    8.8135    7.3893 H   0  0  0  0  0  0  0  0  0  0  0  0
   25.1690   11.7143    8.1129 H   0  0  0  0  0  0  0  0  0  0  0  0
   26.5135   10.8634    7.2365 H   0  0  0  0  0  0  0  0  0  0  0  0
   24.9948   13.6349    6.0299 H   0  0  0  0  0  0  0  0  0  0  0  0
   26.7707   14.4508    2.1035 H   0  0  0  0  0  0  0  0  0  0  0  0
   29.1024   14.3758    3.1200 H   0  0  0  0  0  0  0  0  0  0  0  0
   29.4607   14.8197    5.4874 H   0  0  0  0  0  0  0  0  0  0  0  0
   23.6620   14.7564    8.5514 H   0  0  0  0  0  0  0  0  0  0  0  0
   22.7296   15.2635   10.8250 H   0  0  0  0  0  0  0  0  0  0  0  0
   27.1251   17.2636    9.3577 H   0  0  0  0  0  0  0  0  0  0  0  0
   24.2702   18.7959   14.5485 H   0  0  0  0  0  0  0  0  0  0  0  0
   26.9954   19.8190   13.7042 H   0  0  0  0  0  0  0  0  0  0  0  0
   25.3993   20.5252   13.2905 H   0  0  0  0  0  0  0  0  0  0  0  0
   26.4718   21.6613   15.2396 H   0  0  0  0  0  0  0  0  0  0  0  0
   24.9032   20.8657   15.6672 H   0  0  0  0  0  0  0  0  0  0  0  0
   26.9588   18.0077   17.1439 H   0  0  0  0  0  0  0  0  0  0  0  0
   24.0989   15.6181    6.2248 H   0  0  0  0  0  0  0  0  0  0  0  0
   23.4641   10.7553    3.2171 H   0  0  0  0  0  0  0  0  0  0  0  0
  1  2  1  0
  2  3  1  0
  3  4  2  0
  4  5  1  0
  5  6  1  0
  6  7  2  0
  6  8  2  0
  6  9  1  0
  9 10  1  0
 10 11  2  0
 11 12  1  0
 12 13  2  0
 13 14  1  0
 14 15  2  0
 15 16  1  0
 16 17  1  0
 17 18  2  0
 18 19  1  0
 19 20  2  0
 20 21  1  0
 21 22  2  0
 21 23  1  0
 23 24  2  0
 23 25  1  0
 25 26  1  0
 26 27  1  0
 27 28  1  0
 28 29  1  0
 29 30  2  0
 29 31  1  0
 31 32  1  0
 32 33  2  0
 25 34  1  0
 34 35  2  0
 16 36  2  0
 36 37  1  0
  5 38  1  0
 38 39  2  0
 39  3  1  0
 37 10  1  0
 37 14  1  0
 22 17  1  0
 32 26  1  0
 34 20  1  0
  1 40  1  0
  1 41  1  0
  1 42  1  0
  2 43  1  0
  2 44  1  0
  4 45  1  0
 11 46  1  0
 12 47  1  0
 13 48  1  0
 18 49  1  0
 19 50  1  0
 22 51  1  0
 26 52  1  1
 27 53  1  0
 27 54  1  0
 28 55  1  0
 28 56  1  0
 31 57  1  0
 36 58  1  0
 38 59  1  0
M  END
>  <meeko>  (422) 
{"is_sidechain": [true], "free_energy": -12.63, "intermolecular_energy": 0.0, "internal_energy": -12.63, "cluster_size": 7, "cluster_id": 2, "rank_in_cluster": 1}

>  <_RMSD_MCS_to_ref>  (422) 
1.608337552944197

$$$$
ligand
     RDKit          3D

 63 68  0  0  0  0  0  0  0  0999 V2000
   24.8710    9.6160    7.7820 C   0  0  0  0  0  0  0  0  0  0  0  0
   25.4240   10.9650    7.3490 C   0  0  0  0  0  0  0  0  0  0  0  0
   26.8610   11.1170    7.7040 C   0  0  0  0  0  0  0  0  0  0  0  0
   27.4230   11.7420    8.8000 C   0  0  0  0  0  0  0  0  0  0  0  0
   28.7690   11.6030    8.6120 N   0  0  0  0  0  0  0  0  0  0  0  0
   29.9740   12.4440    9.4520 S   0  0  0  0  0  6  0  0  0  0  0  0
   31.2100   12.0820    8.7790 O   0  0  0  0  0  0  0  0  0  0  0  0
   29.7510   12.0950   10.8400 O   0  0  0  0  0  0  0  0  0  0  0  0
   29.7230   14.0500    9.2570 O   0  0  0  0  0  0  0  0  0  0  0  0
   28.5820   14.4870    8.6510 C   0  0  0  0  0  0  0  0  0  0  0  0
   27.3770   14.5970    9.3500 C   0  0  0  0  0  0  0  0  0  0  0  0
   26.2190   15.0930    8.7100 C   0  0  0  0  0  0  0  0  0  0  0  0
   24.9960   15.3320    9.4770 C   0  0  0  0  0  0  0  0  0  0  0  0
   23.7330   14.9340    9.0030 C   0  0  0  0  0  0  0  0  0  0  0  0
   22.5580   15.1860    9.7390 C   0  0  0  0  0  0  0  0  0  0  0  0
   22.6170   15.8410   10.9700 C   0  0  0  0  0  0  0  0  0  0  0  0
   23.8640   16.2180   11.4270 C   0  0  0  0  0  0  0  0  0  0  0  0
   25.0350   15.9750   10.7110 C   0  0  0  0  0  0  0  0  0  0  0  0
   26.2090   16.5020   11.4700 C   0  0  0  0  0  0  0  0  0  0  0  0
   25.6050   16.9870   12.7010 N   0  0  0  0  0  0  0  0  0  0  0  0
   26.3300   17.7970   13.6740 C   0  0  1  0  0  0  0  0  0  0  0  0
   25.8550   19.2480   13.6900 C   0  0  0  0  0  0  0  0  0  0  0  0
   26.7000   20.0490   14.6690 C   0  0  0  0  0  0  0  0  0  0  0  0
   26.6680   19.4300   16.0460 C   0  0  0  0  0  0  0  0  0  0  0  0
   26.6750   20.1030   17.0720 O   0  0  0  0  0  0  0  0  0  0  0  0
   26.6530   18.0580   16.1020 N   0  0  0  0  0  0  0  0  0  0  0  0
   26.2230   17.2210   15.0970 C   0  0  0  0  0  0  0  0  0  0  0  0
   25.7850   16.1060   15.3670 O   0  0  0  0  0  0  0  0  0  0  0  0
   24.2220   16.9090   12.6730 C   0  0  0  0  0  0  0  0  0  0  0  0
   23.4310   17.3170   13.5010 O   0  0  0  0  0  0  0  0  0  0  0  0
   26.2640   15.4190    7.3410 C   0  0  0  0  0  0  0  0  0  0  0  0
   27.4560   15.2740    6.6470 C   0  0  0  0  0  0  0  0  0  0  0  0
   28.5880   14.8230    7.3090 C   0  0  0  0  0  0  0  0  0  0  0  0
   29.6970   14.8470    6.3650 C   0  0  0  0  0  0  0  0  0  0  0  0
   30.8540   14.6170    6.6660 O   0  0  0  0  0  0  0  0  0  0  0  0
   29.1900   15.2290    4.9970 C   0  0  0  0  0  0  0  0  0  0  0  0
   27.7130   15.5980    5.2100 C   0  0  0  0  0  0  0  0  0  0  0  0
   28.9870   10.9320    7.4510 C   0  0  0  0  0  0  0  0  0  0  0  0
   27.8470   10.6260    6.8670 N   0  0  0  0  0  0  0  0  0  0  0  0
   24.8497    9.5640    8.8806 H   0  0  0  0  0  0  0  0  0  0  0  0
   23.8507    9.4948    7.3893 H   0  0  0  0  0  0  0  0  0  0  0  0
   25.5127    8.8135    7.3893 H   0  0  0  0  0  0  0  0  0  0  0  0
   25.3154   11.0601    6.2585 H   0  0  0  0  0  0  0  0  0  0  0  0
   24.8589   11.7489    7.8745 H   0  0  0  0  0  0  0  0  0  0  0  0
   26.9051   12.2384    9.6339 H   0  0  0  0  0  0  0  0  0  0  0  0
   27.3296   14.2951   10.4067 H   0  0  0  0  0  0  0  0  0  0  0  0
   23.6608   14.4144    8.0361 H   0  0  0  0  0  0  0  0  0  0  0  0
   21.5852   14.8634    9.3395 H   0  0  0  0  0  0  0  0  0  0  0  0
   21.7071   16.0484   11.5523 H   0  0  0  0  0  0  0  0  0  0  0  0
   26.9392   15.7050   11.6741 H   0  0  0  0  0  0  0  0  0  0  0  0
   26.7684   17.2764   10.9246 H   0  0  0  0  0  0  0  0  0  0  0  0
   27.3817   17.7721   13.3525 H   0  0  0  0  0  0  0  0  0  0  0  0
   25.9556   19.6776   12.6824 H   0  0  0  0  0  0  0  0  0  0  0  0
   24.8006   19.2846   14.0014 H   0  0  0  0  0  0  0  0  0  0  0  0
   27.7395   20.0738   14.3101 H   0  0  0  0  0  0  0  0  0  0  0  0
   26.2895   21.0675   14.7336 H   0  0  0  0  0  0  0  0  0  0  0  0
   26.9921   17.6179   16.9693 H   0  0  0  0  0  0  0  0  0  0  0  0
   25.3629   15.7850    6.8271 H   0  0  0  0  0  0  0  0  0  0  0  0
   29.7507   16.0895    4.6030 H   0  0  0  0  0  0  0  0  0  0  0  0
   29.3118   14.4140    4.2683 H   0  0  0  0  0  0  0  0  0  0  0  0
   27.5465   16.6678    5.0157 H   0  0  0  0  0  0  0  0  0  0  0  0
   27.0412   15.0544    4.5295 H   0  0  0  0  0  0  0  0  0  0  0  0
   29.9807   10.6787    7.0529 H   0  0  0  0  0  0  0  0  0  0  0  0
  1  2  1  0
  2  3  1  0
  3  4  2  0
  4  5  1  0
  5  6  1  0
  6  7  2  0
  6  8  2  0
  6  9  1  0
  9 10  1  0
 10 11  2  0
 11 12  1  0
 12 13  1  0
 13 14  2  0
 14 15  1  0
 15 16  2  0
 16 17  1  0
 17 18  2  0
 18 19  1  0
 19 20  1  0
 20 21  1  0
 21 22  1  0
 22 23  1  0
 23 24  1  0
 24 25  2  0
 24 26  1  0
 26 27  1  0
 27 28  2  0
 20 29  1  0
 29 30  2  0
 12 31  2  0
 31 32  1  0
 32 33  2  0
 33 34  1  0
 34 35  2  0
 34 36  1  0
 36 37  1  0
  5 38  1  0
 38 39  2  0
 39  3  1  0
 33 10  1  0
 18 13  1  0
 27 21  1  0
 37 32  1  0
 29 17  1  0
  1 40  1  0
  1 41  1  0
  1 42  1  0
  2 43  1  0
  2 44  1  0
  4 45  1  0
 11 46  1  0
 14 47  1  0
 15 48  1  0
 16 49  1  0
 19 50  1  0
 19 51  1  0
 21 52  1  6
 22 53  1  0
 22 54  1  0
 23 55  1  0
 23 56  1  0
 26 57  1  0
 31 58  1  0
 36 59  1  0
 36 60  1  0
 37 61  1  0
 37 62  1  0
 38 63  1  0
M  END
>  <meeko>  (423) 
{"is_sidechain": [true], "free_energy": -12.63, "intermolecular_energy": 0.0, "internal_energy": -12.63, "cluster_size": 16, "cluster_id": 1, "rank_in_cluster": 1}

>  <_RMSD_MCS_to_ref>  (423) 
1.9650935516322539

$$$$
ligand
     RDKit          3D

 49 52  0  0  0  0  0  0  0  0999 V2000
   24.8710    9.6160    7.7820 C   0  0  0  0  0  0  0  0  0  0  0  0
   25.4240   10.9650    7.3490 C   0  0  0  0  0  0  0  0  0  0  0  0
   26.4980   11.4670    8.2530 C   0  0  0  0  0  0  0  0  0  0  0  0
   27.4200   12.4660    8.0140 C   0  0  0  0  0  0  0  0  0  0  0  0
   28.1700   12.5110    9.1560 N   0  0  0  0  0  0  0  0  0  0  0  0
   29.3700   13.6400    9.5200 S   0  0  0  0  0  6  0  0  0  0  0  0
   30.2800   13.6040    8.3880 O   0  0  0  0  0  0  0  0  0  0  0  0
   29.8230   13.2630   10.8470 O   0  0  0  0  0  0  0  0  0  0  0  0
   28.7060   15.1220    9.6100 O   0  0  0  0  0  0  0  0  0  0  0  0
   27.3860   15.2440    9.7800 C   0  0  0  0  0  0  0  0  0  0  0  0
   26.3720   15.0240    8.8490 C   0  0  0  0  0  0  0  0  0  0  0  0
   25.2240   15.3540    9.5320 C   0  0  0  0  0  0  0  0  0  0  0  0
   23.8420   15.3580    9.1980 C   0  0  0  0  0  0  0  0  0  0  0  0
   22.9460   15.7720   10.1110 C   0  0  0  0  0  0  0  0  0  0  0  0
   23.3540   16.2220   11.4310 C   0  0  0  0  0  0  0  0  0  0  0  0
   24.6620   16.2230   11.7670 C   0  0  0  0  0  0  0  0  0  0  0  0
   25.0150   16.7060   13.1380 C   0  0  0  0  0  0  0  0  0  0  0  0
   25.2960   15.9260   14.0450 O   0  0  0  0  0  0  0  0  0  0  0  0
   25.0000   18.0600   13.3210 N   0  0  0  0  0  0  0  0  0  0  0  0
   25.2210   18.6900   14.6130 C   0  0  1  0  0  0  0  0  0  0  0  0
   26.3160   17.9910   15.4120 C   0  0  0  0  0  0  0  0  0  0  0  0
   26.5220   18.7080   16.7350 C   0  0  0  0  0  0  0  0  0  0  0  0
   26.8400   20.1680   16.5250 C   0  0  0  0  0  0  0  0  0  0  0  0
   27.5320   20.8090   17.3110 O   0  0  0  0  0  0  0  0  0  0  0  0
   26.2650   20.7720   15.4350 N   0  0  0  0  0  0  0  0  0  0  0  0
   25.5960   20.1630   14.4020 C   0  0  0  0  0  0  0  0  0  0  0  0
   25.2820   20.8010   13.3960 O   0  0  0  0  0  0  0  0  0  0  0  0
   25.6010   15.7850   10.8170 N   0  0  0  0  0  0  0  0  0  0  0  0
   26.9630   15.6970   10.9520 N   0  0  0  0  0  0  0  0  0  0  0  0
   27.6830   11.6080   10.0440 C   0  0  0  0  0  0  0  0  0  0  0  0
   26.6600   10.9540    9.5280 N   0  0  0  0  0  0  0  0  0  0  0  0
   24.8497    9.5640    8.8806 H   0  0  0  0  0  0  0  0  0  0  0  0
   23.8507    9.4948    7.3893 H   0  0  0  0  0  0  0  0  0  0  0  0
   25.5127    8.8135    7.3893 H   0  0  0  0  0  0  0  0  0  0  0  0
   25.8367   10.8662    6.3342 H   0  0  0  0  0  0  0  0  0  0  0  0
   24.5964   11.6887    7.3846 H   0  0  0  0  0  0  0  0  0  0  0  0
   27.5269   13.0847    7.1108 H   0  0  0  0  0  0  0  0  0  0  0  0
   26.4673   14.6698    7.8120 H   0  0  0  0  0  0  0  0  0  0  0  0
   23.5094   15.0260    8.2034 H   0  0  0  0  0  0  0  0  0  0  0  0
   21.8769   15.7700    9.8521 H   0  0  0  0  0  0  0  0  0  0  0  0
   22.5988   16.5612   12.1553 H   0  0  0  0  0  0  0  0  0  0  0  0
   24.8238   18.6633   12.5050 H   0  0  0  0  0  0  0  0  0  0  0  0
   24.2883   18.6113   15.1908 H   0  0  0  0  0  0  0  0  0  0  0  0
   26.0204   16.9488   15.6032 H   0  0  0  0  0  0  0  0  0  0  0  0
   27.2541   18.0098   14.8378 H   0  0  0  0  0  0  0  0  0  0  0  0
   25.6036   18.6242   17.3345 H   0  0  0  0  0  0  0  0  0  0  0  0
   27.3708   18.2396   17.2547 H   0  0  0  0  0  0  0  0  0  0  0  0
   26.3442   21.7978   15.3863 H   0  0  0  0  0  0  0  0  0  0  0  0
   28.0855   11.4439   11.0545 H   0  0  0  0  0  0  0  0  0  0  0  0
  1  2  1  0
  2  3  1  0
  3  4  2  0
  4  5  1  0
  5  6  1  0
  6  7  2  0
  6  8  2  0
  6  9  1  0
  9 10  1  0
 10 11  1  0
 11 12  2  0
 12 13  1  0
 13 14  2  0
 14 15  1  0
 15 16  2  0
 16 17  1  0
 17 18  2  0
 17 19  1  0
 19 20  1  0
 20 21  1  0
 21 22  1  0
 22 23  1  0
 23 24  2  0
 23 25  1  0
 25 26  1  0
 26 27  2  0
 16 28  1  0
 28 29  1  0
  5 30  1  0
 30 31  2  0
 31  3  1  0
 29 10  2  0
 28 12  1  0
 26 20  1  0
  1 32  1  0
  1 33  1  0
  1 34  1  0
  2 35  1  0
  2 36  1  0
  4 37  1  0
 11 38  1  0
 13 39  1  0
 14 40  1  0
 15 41  1  0
 19 42  1  0
 20 43  1  1
 21 44  1  0
 21 45  1  0
 22 46  1  0
 22 47  1  0
 25 48  1  0
 30 49  1  0
M  END
>  <meeko>  (424) 
{"is_sidechain": [true], "free_energy": -12.63, "intermolecular_energy": 0.0, "internal_energy": -12.63, "cluster_size": 12, "cluster_id": 1, "rank_in_cluster": 1}

>  <_RMSD_MCS_to_ref>  (424) 
0.6982765291137248

$$$$
ligand
     RDKit          3D

 65 69  0  0  0  0  0  0  0  0999 V2000
   24.8540    9.4020    7.6050 C   0  0  0  0  0  0  0  0  0  0  0  0
   25.5230   10.7550    7.4270 C   0  0  0  0  0  0  0  0  0  0  0  0
   27.0020   10.6770    7.5850 C   0  0  0  0  0  0  0  0  0  0  0  0
   27.8900   11.6690    7.9480 C   0  0  0  0  0  0  0  0  0  0  0  0
   29.1050   11.0440    7.9560 N   0  0  0  0  0  0  0  0  0  0  0  0
   30.5950   11.7930    8.1520 S   0  0  0  0  0  6  0  0  0  0  0  0
   31.0990   12.0130    6.8100 O   0  0  0  0  0  0  0  0  0  0  0  0
   31.2900   10.9730    9.1250 O   0  0  0  0  0  0  0  0  0  0  0  0
   30.3100   13.3980    8.8830 C   0  0  0  0  0  0  0  0  0  0  0  0
   30.8960   13.7180   10.1160 C   0  0  0  0  0  0  0  0  0  0  0  0
   30.6950   14.9740   10.6790 C   0  0  0  0  0  0  0  0  0  0  0  0
   29.9120   15.9150   10.0190 C   0  0  0  0  0  0  0  0  0  0  0  0
   29.3030   15.6150    8.7870 C   0  0  0  0  0  0  0  0  0  0  0  0
   29.4860   14.3370    8.2090 C   0  0  0  0  0  0  0  0  0  0  0  0
   28.8630   14.0210    6.8640 C   0  0  0  0  0  0  0  0  0  0  0  0
   27.6930   14.9250    6.4890 C   0  0  0  0  0  0  0  0  0  0  0  0
   28.0590   16.3870    6.6850 C   0  0  0  0  0  0  0  0  0  0  0  0
   28.4470   16.6950    8.1360 C   0  0  1  0  0  0  0  0  0  0  0  0
   27.1970   17.0660    8.9540 C   0  0  0  0  0  0  0  0  0  0  0  0
   26.3110   17.7430    8.4350 O   0  0  0  0  0  0  0  0  0  0  0  0
   27.1640   16.5350   10.2310 N   0  0  0  0  0  0  0  0  0  0  0  0
   26.1500   16.6700   11.2020 C   0  0  0  0  0  0  0  0  0  0  0  0
   24.9560   15.9770   10.9740 C   0  0  0  0  0  0  0  0  0  0  0  0
   23.9010   16.0600   11.8830 C   0  0  0  0  0  0  0  0  0  0  0  0
   24.0290   16.8360   13.0340 C   0  0  0  0  0  0  0  0  0  0  0  0
   25.2180   17.5310   13.2910 C   0  0  0  0  0  0  0  0  0  0  0  0
   25.3840   18.4090   14.5220 C   0  0  1  0  0  0  0  0  0  0  0  0
   26.5150   17.8650   15.4020 C   0  0  0  0  0  0  0  0  0  0  0  0
   26.6330   18.7020   16.6650 C   0  0  0  0  0  0  0  0  0  0  0  0
   26.8570   20.1560   16.3330 C   0  0  0  0  0  0  0  0  0  0  0  0
   27.4320   20.9240   17.0990 O   0  0  0  0  0  0  0  0  0  0  0  0
   26.3300   20.6000   15.1470 N   0  0  0  0  0  0  0  0  0  0  0  0
   25.6200   19.8860   14.2080 C   0  0  0  0  0  0  0  0  0  0  0  0
   25.1770   20.4620   13.2170 O   0  0  0  0  0  0  0  0  0  0  0  0
   26.2710   17.4450   12.3590 C   0  0  0  0  0  0  0  0  0  0  0  0
   28.9420    9.7460    7.5890 C   0  0  0  0  0  0  0  0  0  0  0  0
   27.6720    9.4930    7.3490 N   0  0  0  0  0  0  0  0  0  0  0  0
   24.7464    9.1845    8.6779 H   0  0  0  0  0  0  0  0  0  0  0  0
   23.8606    9.4192    7.1330 H   0  0  0  0  0  0  0  0  0  0  0  0
   25.4708    8.6230    7.1330 H   0  0  0  0  0  0  0  0  0  0  0  0
   25.2939   11.1336    6.4199 H   0  0  0  0  0  0  0  0  0  0  0  0
   25.1354   11.4282    8.2058 H   0  0  0  0  0  0  0  0  0  0  0  0
   27.6700   12.7219    8.1782 H   0  0  0  0  0  0  0  0  0  0  0  0
   31.5156   12.9746   10.6389 H   0  0  0  0  0  0  0  0  0  0  0  0
   31.1555   15.2230   11.6465 H   0  0  0  0  0  0  0  0  0  0  0  0
   29.7667   16.9090   10.4672 H   0  0  0  0  0  0  0  0  0  0  0  0
   29.6394   14.1234    6.0916 H   0  0  0  0  0  0  0  0  0  0  0  0
   28.4630   12.9987    6.9333 H   0  0  0  0  0  0  0  0  0  0  0  0
   27.4305   14.7568    5.4341 H   0  0  0  0  0  0  0  0  0  0  0  0
   26.8382   14.6845    7.1382 H   0  0  0  0  0  0  0  0  0  0  0  0
   28.9094   16.6305    6.0311 H   0  0  0  0  0  0  0  0  0  0  0  0
   27.1763   16.9937    6.4344 H   0  0  0  0  0  0  0  0  0  0  0  0
   29.1088   17.5735    8.1200 H   0  0  0  0  0  0  0  0  0  0  0  0
   27.9809   15.9714   10.5067 H   0  0  0  0  0  0  0  0  0  0  0  0
   24.8482   15.3608   10.0692 H   0  0  0  0  0  0  0  0  0  0  0  0
   22.9666   15.5122   11.6912 H   0  0  0  0  0  0  0  0  0  0  0  0
   23.1918   16.9030   13.7444 H   0  0  0  0  0  0  0  0  0  0  0  0
   24.4260   18.3670   15.0610 H   0  0  0  0  0  0  0  0  0  0  0  0
   26.2962   16.8219   15.6743 H   0  0  0  0  0  0  0  0  0  0  0  0
   27.4627   17.9120   14.8455 H   0  0  0  0  0  0  0  0  0  0  0  0
   25.7053   18.6053   17.2482 H   0  0  0  0  0  0  0  0  0  0  0  0
   27.4939   18.3393   17.2457 H   0  0  0  0  0  0  0  0  0  0  0  0
   26.4853   21.5951   14.9312 H   0  0  0  0  0  0  0  0  0  0  0  0
   27.2041   17.9970   12.5449 H   0  0  0  0  0  0  0  0  0  0  0  0
   29.7556    9.0106    7.5043 H   0  0  0  0  0  0  0  0  0  0  0  0
  1  2  1  0
  2  3  1  0
  3  4  2  0
  4  5  1  0
  5  6  1  0
  6  7  2  0
  6  8  2  0
  6  9  1  0
  9 10  2  0
 10 11  1  0
 11 12  2  0
 12 13  1  0
 13 14  2  0
 14 15  1  0
 15 16  1  0
 16 17  1  0
 17 18  1  0
 18 19  1  0
 19 20  2  0
 19 21  1  0
 21 22  1  0
 22 23  2  0
 23 24  1  0
 24 25  2  0
 25 26  1  0
 26 27  1  0
 27 28  1  0
 28 29  1  0
 29 30  1  0
 30 31  2  0
 30 32  1  0
 32 33  1  0
 33 34  2  0
 26 35  2  0
  5 36  1  0
 36 37  2  0
 37  3  1  0
 14  9  1  0
 35 22  1  0
 18 13  1  0
 33 27  1  0
  1 38  1  0
  1 39  1  0
  1 40  1  0
  2 41  1  0
  2 42  1  0
  4 43  1  0
 10 44  1  0
 11 45  1  0
 12 46  1  0
 15 47  1  0
 15 48  1  0
 16 49  1  0
 16 50  1  0
 17 51  1  0
 17 52  1  0
 18 53  1  6
 21 54  1  0
 23 55  1  0
 24 56  1  0
 25 57  1  0
 27 58  1  1
 28 59  1  0
 28 60  1  0
 29 61  1  0
 29 62  1  0
 32 63  1  0
 35 64  1  0
 36 65  1  0
M  END
>  <meeko>  (425) 
{"is_sidechain": [true], "free_energy": -12.62, "intermolecular_energy": 0.0, "internal_energy": -12.62, "cluster_size": 18, "cluster_id": 1, "rank_in_cluster": 1}

>  <_RMSD_MCS_to_ref>  (425) 
0.5439872470931642

$$$$
ligand
     RDKit          3D

 60 65  0  0  0  0  0  0  0  0999 V2000
   24.8540    9.4020    7.6050 C   0  0  0  0  0  0  0  0  0  0  0  0
   25.5230   10.7550    7.4270 C   0  0  0  0  0  0  0  0  0  0  0  0
   26.9870   10.6320    7.1890 C   0  0  0  0  0  0  0  0  0  0  0  0
   27.8050   11.4070    6.3910 C   0  0  0  0  0  0  0  0  0  0  0  0
   29.0390   10.8320    6.5180 N   0  0  0  0  0  0  0  0  0  0  0  0
   30.4930   11.4910    5.9750 S   0  0  0  0  0  6  0  0  0  0  0  0
   31.5190   10.6990    6.6290 O   0  0  0  0  0  0  0  0  0  0  0  0
   30.3600   11.5260    4.5300 O   0  0  0  0  0  0  0  0  0  0  0  0
   30.5300   13.0210    6.5590 O   0  0  0  0  0  0  0  0  0  0  0  0
   29.5080   13.5540    7.2270 C   0  0  0  0  0  0  0  0  0  0  0  0
   28.6770   13.0940    8.2270 C   0  0  0  0  0  0  0  0  0  0  0  0
   27.7560   14.1320    8.5450 C   0  0  0  0  0  0  0  0  0  0  0  0
   26.6960   14.2540    9.4660 C   0  0  0  0  0  0  0  0  0  0  0  0
   25.9540   15.4500    9.5410 C   0  0  0  0  0  0  0  0  0  0  0  0
   24.8360   15.5680   10.4840 C   0  0  0  0  0  0  0  0  0  0  0  0
   23.5960   14.9560   10.1910 C   0  0  0  0  0  0  0  0  0  0  0  0
   22.4920   15.0450   11.0640 C   0  0  0  0  0  0  0  0  0  0  0  0
   22.5940   15.7480   12.2610 C   0  0  0  0  0  0  0  0  0  0  0  0
   23.8100   16.3380   12.5430 C   0  0  0  0  0  0  0  0  0  0  0  0
   24.9020   16.2600   11.6890 C   0  0  0  0  0  0  0  0  0  0  0  0
   25.9920   17.0050   12.3380 C   0  0  0  0  0  0  0  0  0  0  0  0
   27.1040   17.1880   11.8810 O   0  0  0  0  0  0  0  0  0  0  0  0
   25.5130   17.4480   13.5440 N   0  0  0  0  0  0  0  0  0  0  0  0
   26.2650   18.3540   14.3990 C   0  0  2  0  0  0  0  0  0  0  0  0
   26.1870   18.0240   15.8880 C   0  0  0  0  0  0  0  0  0  0  0  0
   27.0420   19.0140   16.6650 C   0  0  0  0  0  0  0  0  0  0  0  0
   26.6190   20.4390   16.3890 C   0  0  0  0  0  0  0  0  0  0  0  0
   26.7760   21.3400   17.2080 O   0  0  0  0  0  0  0  0  0  0  0  0
   26.0940   20.6960   15.1460 N   0  0  0  0  0  0  0  0  0  0  0  0
   25.7910   19.7900   14.1540 C   0  0  0  0  0  0  0  0  0  0  0  0
   25.2270   20.1610   13.1250 O   0  0  0  0  0  0  0  0  0  0  0  0
   24.1970   17.1290   13.7070 C   0  0  0  0  0  0  0  0  0  0  0  0
   23.4390   17.4300   14.6090 O   0  0  0  0  0  0  0  0  0  0  0  0
   26.2870   16.5060    8.6800 C   0  0  0  0  0  0  0  0  0  0  0  0
   27.3370   16.4100    7.7590 C   0  0  0  0  0  0  0  0  0  0  0  0
   28.0510   15.2100    7.7160 C   0  0  0  0  0  0  0  0  0  0  0  0
   29.1170   14.8350    6.9330 N   0  0  0  0  0  0  0  0  0  0  0  0
   28.9640    9.8170    7.4160 C   0  0  0  0  0  0  0  0  0  0  0  0
   27.7240    9.6530    7.8260 N   0  0  0  0  0  0  0  0  0  0  0  0
   24.7464    9.1845    8.6779 H   0  0  0  0  0  0  0  0  0  0  0  0
   23.8606    9.4192    7.1330 H   0  0  0  0  0  0  0  0  0  0  0  0
   25.4708    8.6230    7.1330 H   0  0  0  0  0  0  0  0  0  0  0  0
   25.0660   11.2656    6.5665 H   0  0  0  0  0  0  0  0  0  0  0  0
   25.3790   11.3274    8.3553 H   0  0  0  0  0  0  0  0  0  0  0  0
   27.5274   12.2859    5.7905 H   0  0  0  0  0  0  0  0  0  0  0  0
   28.7185   12.1000    8.6963 H   0  0  0  0  0  0  0  0  0  0  0  0
   26.4468   13.4123   10.1290 H   0  0  0  0  0  0  0  0  0  0  0  0
   23.4887   14.3925    9.2524 H   0  0  0  0  0  0  0  0  0  0  0  0
   21.5438   14.5555   10.7971 H   0  0  0  0  0  0  0  0  0  0  0  0
   21.7425   15.8300   12.9525 H   0  0  0  0  0  0  0  0  0  0  0  0
   27.3235   18.2350   14.1245 H   0  0  0  0  0  0  0  0  0  0  0  0
   25.1427   18.0948   16.2264 H   0  0  0  0  0  0  0  0  0  0  0  0
   26.5561   17.0021   16.0600 H   0  0  0  0  0  0  0  0  0  0  0  0
   26.9371   18.8110   17.7410 H   0  0  0  0  0  0  0  0  0  0  0  0
   28.0882   18.8942   16.3469 H   0  0  0  0  0  0  0  0  0  0  0  0
   25.9041   21.6850   14.9299 H   0  0  0  0  0  0  0  0  0  0  0  0
   25.7053   17.4382    8.7300 H   0  0  0  0  0  0  0  0  0  0  0  0
   27.5905   17.2485    7.0937 H   0  0  0  0  0  0  0  0  0  0  0  0
   29.5612   15.4343    6.2227 H   0  0  0  0  0  0  0  0  0  0  0  0
   29.8204    9.2151    7.7541 H   0  0  0  0  0  0  0  0  0  0  0  0
  1  2  1  0
  2  3  1  0
  3  4  2  0
  4  5  1  0
  5  6  1  0
  6  7  2  0
  6  8  2  0
  6  9  1  0
  9 10  1  0
 10 11  2  0
 11 12  1  0
 12 13  2  0
 13 14  1  0
 14 15  1  0
 15 16  2  0
 16 17  1  0
 17 18  2  0
 18 19  1  0
 19 20  2  0
 20 21  1  0
 21 22  2  0
 21 23  1  0
 23 24  1  0
 24 25  1  0
 25 26  1  0
 26 27  1  0
 27 28  2  0
 27 29  1  0
 29 30  1  0
 30 31  2  0
 23 32  1  0
 32 33  2  0
 14 34  2  0
 34 35  1  0
 35 36  2  0
 36 37  1  0
  5 38  1  0
 38 39  2  0
 39  3  1  0
 37 10  1  0
 36 12  1  0
 20 15  1  0
 30 24  1  0
 32 19  1  0
  1 40  1  0
  1 41  1  0
  1 42  1  0
  2 43  1  0
  2 44  1  0
  4 45  1  0
 11 46  1  0
 13 47  1  0
 16 48  1  0
 17 49  1  0
 18 50  1  0
 24 51  1  6
 25 52  1  0
 25 53  1  0
 26 54  1  0
 26 55  1  0
 29 56  1  0
 34 57  1  0
 35 58  1  0
 37 59  1  0
 38 60  1  0
M  END
>  <meeko>  (426) 
{"is_sidechain": [true], "free_energy": -12.62, "intermolecular_energy": 0.0, "internal_energy": -12.62, "cluster_size": 3, "cluster_id": 1, "rank_in_cluster": 1}

>  <_RMSD_MCS_to_ref>  (426) 
0.8655000481417275

$$$$
ligand
     RDKit          3D

 59 64  0  0  0  0  0  0  0  0999 V2000
   24.8540    9.4020    7.6050 C   0  0  0  0  0  0  0  0  0  0  0  0
   25.5230   10.7550    7.4270 C   0  0  0  0  0  0  0  0  0  0  0  0
   25.0290   11.4730    6.2210 C   0  0  0  0  0  0  0  0  0  0  0  0
   25.3030   12.7620    5.8070 C   0  0  0  0  0  0  0  0  0  0  0  0
   24.5890   12.9000    4.6510 N   0  0  0  0  0  0  0  0  0  0  0  0
   24.5900   14.2580    3.6490 S   0  0  0  0  0  6  0  0  0  0  0  0
   23.3610   14.9470    4.0140 O   0  0  0  0  0  0  0  0  0  0  0  0
   24.7450   13.7290    2.3020 O   0  0  0  0  0  0  0  0  0  0  0  0
   25.9380   15.2790    4.0210 C   0  0  0  0  0  0  0  0  0  0  0  0
   26.8310   15.5500    3.0440 C   0  0  0  0  0  0  0  0  0  0  0  0
   27.9980   16.3860    3.2910 C   0  0  0  0  0  0  0  0  0  0  0  0
   28.1870   16.8850    4.5230 C   0  0  0  0  0  0  0  0  0  0  0  0
   27.2650   16.5920    5.5240 N   0  0  0  0  0  0  0  0  0  0  0  0
   27.2460   16.9900    6.8370 C   0  0  0  0  0  0  0  0  0  0  0  0
   26.1140   16.4260    7.3850 C   0  0  0  0  0  0  0  0  0  0  0  0
   25.6410   16.5640    8.7550 C   0  0  0  0  0  0  0  0  0  0  0  0
   24.4230   15.9420    9.1280 C   0  0  0  0  0  0  0  0  0  0  0  0
   23.9070   16.0420   10.4280 C   0  0  0  0  0  0  0  0  0  0  0  0
   24.6260   16.7680   11.3560 C   0  0  0  0  0  0  0  0  0  0  0  0
   25.8230   17.3740   10.9890 C   0  0  0  0  0  0  0  0  0  0  0  0
   26.3530   17.2970    9.7130 C   0  0  0  0  0  0  0  0  0  0  0  0
   26.3580   18.0730   12.1630 C   0  0  0  0  0  0  0  0  0  0  0  0
   27.3540   18.7690   12.1550 O   0  0  0  0  0  0  0  0  0  0  0  0
   25.5070   17.7890   13.2210 N   0  0  0  0  0  0  0  0  0  0  0  0
   25.5490   18.4610   14.5150 C   0  0  1  0  0  0  0  0  0  0  0  0
   26.6430   17.9350   15.4450 C   0  0  0  0  0  0  0  0  0  0  0  0
   26.5590   18.6590   16.7790 C   0  0  0  0  0  0  0  0  0  0  0  0
   26.6680   20.1540   16.5990 C   0  0  0  0  0  0  0  0  0  0  0  0
   27.0470   20.8960   17.5020 O   0  0  0  0  0  0  0  0  0  0  0  0
   26.2430   20.6630   15.3990 N   0  0  0  0  0  0  0  0  0  0  0  0
   25.6720   19.9840   14.3470 C   0  0  0  0  0  0  0  0  0  0  0  0
   25.2050   20.6020   13.3900 O   0  0  0  0  0  0  0  0  0  0  0  0
   24.3210   17.0620   12.7850 C   0  0  0  0  0  0  0  0  0  0  0  0
   25.4430   15.6860    6.4350 N   0  0  0  0  0  0  0  0  0  0  0  0
   26.1380   15.8010    5.3270 C   0  0  0  0  0  0  0  0  0  0  0  0
   23.9460   11.7350    4.3810 C   0  0  0  0  0  0  0  0  0  0  0  0
   24.1780   10.8470    5.3290 N   0  0  0  0  0  0  0  0  0  0  0  0
   24.7464    9.1845    8.6779 H   0  0  0  0  0  0  0  0  0  0  0  0
   23.8606    9.4192    7.1330 H   0  0  0  0  0  0  0  0  0  0  0  0
   25.4708    8.6230    7.1330 H   0  0  0  0  0  0  0  0  0  0  0  0
   25.3175   11.3711    8.3148 H   0  0  0  0  0  0  0  0  0  0  0  0
   26.6020   10.5835    7.2991 H   0  0  0  0  0  0  0  0  0  0  0  0
   25.9483   13.5065    6.2962 H   0  0  0  0  0  0  0  0  0  0  0  0
   26.6733   15.1300    2.0397 H   0  0  0  0  0  0  0  0  0  0  0  0
   28.7115   16.6045    2.4828 H   0  0  0  0  0  0  0  0  0  0  0  0
   29.0603   17.5180    4.7389 H   0  0  0  0  0  0  0  0  0  0  0  0
   27.9826   17.6279    7.3473 H   0  0  0  0  0  0  0  0  0  0  0  0
   23.8664   15.3640    8.3756 H   0  0  0  0  0  0  0  0  0  0  0  0
   22.9581   15.5566   10.7000 H   0  0  0  0  0  0  0  0  0  0  0  0
   27.3009   17.7944    9.4597 H   0  0  0  0  0  0  0  0  0  0  0  0
   24.5899   18.2281   15.0007 H   0  0  0  0  0  0  0  0  0  0  0  0
   26.5031   16.8555   15.6033 H   0  0  0  0  0  0  0  0  0  0  0  0
   27.6292   18.1120   14.9910 H   0  0  0  0  0  0  0  0  0  0  0  0
   25.5949   18.4245   17.2540 H   0  0  0  0  0  0  0  0  0  0  0  0
   27.3952   18.3231   17.4098 H   0  0  0  0  0  0  0  0  0  0  0  0
   26.3661   21.6773   15.2690 H   0  0  0  0  0  0  0  0  0  0  0  0
   24.1895   16.1346   13.3618 H   0  0  0  0  0  0  0  0  0  0  0  0
   23.3866   17.6252   12.9257 H   0  0  0  0  0  0  0  0  0  0  0  0
   23.3189   11.5563    3.4951 H   0  0  0  0  0  0  0  0  0  0  0  0
  1  2  1  0
  2  3  1  0
  3  4  2  0
  4  5  1  0
  5  6  1  0
  6  7  2  0
  6  8  2  0
  6  9  1  0
  9 10  2  0
 10 11  1  0
 11 12  2  0
 12 13  1  0
 13 14  1  0
 14 15  2  0
 15 16  1  0
 16 17  2  0
 17 18  1  0
 18 19  2  0
 19 20  1  0
 20 21  2  0
 20 22  1  0
 22 23  2  0
 22 24  1  0
 24 25  1  0
 25 26  1  0
 26 27  1  0
 27 28  1  0
 28 29  2  0
 28 30  1  0
 30 31  1  0
 31 32  2  0
 24 33  1  0
 15 34  1  0
 34 35  2  0
  5 36  1  0
 36 37  2  0
 37  3  1  0
 35  9  1  0
 35 13  1  0
 21 16  1  0
 31 25  1  0
 33 19  1  0
  1 38  1  0
  1 39  1  0
  1 40  1  0
  2 41  1  0
  2 42  1  0
  4 43  1  0
 10 44  1  0
 11 45  1  0
 12 46  1  0
 14 47  1  0
 17 48  1  0
 18 49  1  0
 21 50  1  0
 25 51  1  1
 26 52  1  0
 26 53  1  0
 27 54  1  0
 27 55  1  0
 30 56  1  0
 33 57  1  0
 33 58  1  0
 36 59  1  0
M  END
>  <meeko>  (427) 
{"is_sidechain": [true], "free_energy": -12.61, "intermolecular_energy": 0.0, "internal_energy": -12.61, "cluster_size": 18, "cluster_id": 1, "rank_in_cluster": 1}

>  <_RMSD_MCS_to_ref>  (427) 
0.5934786338941677

$$$$
ligand
     RDKit          3D

 61 66  0  0  0  0  0  0  0  0999 V2000
   24.8710    9.6160    7.7820 C   0  0  0  0  0  0  0  0  0  0  0  0
   25.4240   10.9650    7.3490 C   0  0  0  0  0  0  0  0  0  0  0  0
   26.4560   10.8320    6.2840 C   0  0  0  0  0  0  0  0  0  0  0  0
   27.8300   10.7600    6.4090 C   0  0  0  0  0  0  0  0  0  0  0  0
   28.2790   10.6710    5.1220 N   0  0  0  0  0  0  0  0  0  0  0  0
   29.8840   10.8870    4.6360 S   0  0  0  0  0  6  0  0  0  0  0  0
   29.9710   10.2790    3.3220 O   0  0  0  0  0  0  0  0  0  0  0  0
   30.6620   10.3830    5.7520 O   0  0  0  0  0  0  0  0  0  0  0  0
   30.1700   12.4980    4.5140 O   0  0  0  0  0  0  0  0  0  0  0  0
   29.1130   13.3590    4.3580 C   0  0  0  0  0  0  0  0  0  0  0  0
   28.6990   13.7320    3.0810 C   0  0  0  0  0  0  0  0  0  0  0  0
   27.6070   14.5800    2.9480 C   0  0  0  0  0  0  0  0  0  0  0  0
   26.9490   15.0560    4.0870 C   0  0  0  0  0  0  0  0  0  0  0  0
   27.3660   14.7230    5.3700 C   0  0  0  0  0  0  0  0  0  0  0  0
   26.7010   15.2130    6.4260 N   0  0  0  0  0  0  0  0  0  0  0  0
   27.1280   14.8740    7.6570 C   0  0  0  0  0  0  0  0  0  0  0  0
   26.3720   15.3890    8.8190 C   0  0  0  0  0  0  0  0  0  0  0  0
   25.0460   14.9490    9.0860 C   0  0  0  0  0  0  0  0  0  0  0  0
   24.3110   15.4150   10.1830 C   0  0  0  0  0  0  0  0  0  0  0  0
   24.9230   16.3330   11.0080 C   0  0  0  0  0  0  0  0  0  0  0  0
   26.2170   16.7930   10.7890 C   0  0  0  0  0  0  0  0  0  0  0  0
   26.9490   16.3300    9.7050 C   0  0  0  0  0  0  0  0  0  0  0  0
   26.6060   17.7580   11.8570 C   0  0  0  0  0  0  0  0  0  0  0  0
   25.3840   17.8720   12.6430 N   0  0  0  0  0  0  0  0  0  0  0  0
   25.3240   18.5170   13.9480 C   0  0  2  0  0  0  0  0  0  0  0  0
   26.3110   19.6730   14.0740 C   0  0  0  0  0  0  0  0  0  0  0  0
   26.1250   20.3510   15.4230 C   0  0  0  0  0  0  0  0  0  0  0  0
   26.2670   19.3610   16.5550 C   0  0  0  0  0  0  0  0  0  0  0  0
   26.7840   19.6580   17.6280 O   0  0  0  0  0  0  0  0  0  0  0  0
   25.7690   18.1030   16.3340 N   0  0  0  0  0  0  0  0  0  0  0  0
   25.5650   17.5270   15.1010 C   0  0  0  0  0  0  0  0  0  0  0  0
   25.5930   16.3050   14.9760 O   0  0  0  0  0  0  0  0  0  0  0  0
   24.4060   16.9850   12.2160 C   0  0  0  0  0  0  0  0  0  0  0  0
   23.3210   16.7680   12.7200 O   0  0  0  0  0  0  0  0  0  0  0  0
   28.1950   14.0910    7.8980 N   0  0  0  0  0  0  0  0  0  0  0  0
   28.8420   13.6170    6.8180 C   0  0  0  0  0  0  0  0  0  0  0  0
   28.4710   13.8800    5.5050 C   0  0  0  0  0  0  0  0  0  0  0  0
   27.2190   10.7140    4.2760 C   0  0  0  0  0  0  0  0  0  0  0  0
   26.0920   10.7960    4.9520 N   0  0  0  0  0  0  0  0  0  0  0  0
   24.8497    9.5640    8.8806 H   0  0  0  0  0  0  0  0  0  0  0  0
   23.8507    9.4948    7.3893 H   0  0  0  0  0  0  0  0  0  0  0  0
   25.5127    8.8135    7.3893 H   0  0  0  0  0  0  0  0  0  0  0  0
   24.5969   11.5810    6.9664 H   0  0  0  0  0  0  0  0  0  0  0  0
   25.8988   11.4329    8.2240 H   0  0  0  0  0  0  0  0  0  0  0  0
   28.4261   10.7717    7.3334 H   0  0  0  0  0  0  0  0  0  0  0  0
   29.2290   13.3605    2.1915 H   0  0  0  0  0  0  0  0  0  0  0  0
   27.2597   14.8772    1.9474 H   0  0  0  0  0  0  0  0  0  0  0  0
   26.0757   15.7133    3.9633 H   0  0  0  0  0  0  0  0  0  0  0  0
   24.5821   14.2178    8.4077 H   0  0  0  0  0  0  0  0  0  0  0  0
   23.2874   15.0627   10.3779 H   0  0  0  0  0  0  0  0  0  0  0  0
   27.9734   16.6927    9.5349 H   0  0  0  0  0  0  0  0  0  0  0  0
   27.4340   17.3648   12.4651 H   0  0  0  0  0  0  0  0  0  0  0  0
   26.9663   18.7211   11.4663 H   0  0  0  0  0  0  0  0  0  0  0  0
   24.3012   18.9143   14.0252 H   0  0  0  0  0  0  0  0  0  0  0  0
   27.3386   19.2885   13.9950 H   0  0  0  0  0  0  0  0  0  0  0  0
   26.1298   20.4004   13.2690 H   0  0  0  0  0  0  0  0  0  0  0  0
   26.8849   21.1381   15.5370 H   0  0  0  0  0  0  0  0  0  0  0  0
   25.1132   20.7810   15.4606 H   0  0  0  0  0  0  0  0  0  0  0  0
   25.5267   17.5405   17.1621 H   0  0  0  0  0  0  0  0  0  0  0  0
   29.7226   12.9793    6.9853 H   0  0  0  0  0  0  0  0  0  0  0  0
   27.2911   10.6845    3.1788 H   0  0  0  0  0  0  0  0  0  0  0  0
  1  2  1  0
  2  3  1  0
  3  4  2  0
  4  5  1  0
  5  6  1  0
  6  7  2  0
  6  8  2  0
  6  9  1  0
  9 10  1  0
 10 11  2  0
 11 12  1  0
 12 13  2  0
 13 14  1  0
 14 15  2  0
 15 16  1  0
 16 17  1  0
 17 18  2  0
 18 19  1  0
 19 20  2  0
 20 21  1  0
 21 22  2  0
 21 23  1  0
 23 24  1  0
 24 25  1  0
 25 26  1  0
 26 27  1  0
 27 28  1  0
 28 29  2  0
 28 30  1  0
 30 31  1  0
 31 32  2  0
 24 33  1  0
 33 34  2  0
 16 35  2  0
 35 36  1  0
 36 37  2  0
  5 38  1  0
 38 39  2  0
 39  3  1  0
 37 10  1  0
 37 14  1  0
 22 17  1  0
 31 25  1  0
 33 20  1  0
  1 40  1  0
  1 41  1  0
  1 42  1  0
  2 43  1  0
  2 44  1  0
  4 45  1  0
 11 46  1  0
 12 47  1  0
 13 48  1  0
 18 49  1  0
 19 50  1  0
 22 51  1  0
 23 52  1  0
 23 53  1  0
 25 54  1  1
 26 55  1  0
 26 56  1  0
 27 57  1  0
 27 58  1  0
 30 59  1  0
 36 60  1  0
 38 61  1  0
M  END
>  <meeko>  (428) 
{"is_sidechain": [true], "free_energy": -12.61, "intermolecular_energy": 0.0, "internal_energy": -12.61, "cluster_size": 20, "cluster_id": 1, "rank_in_cluster": 1}

>  <_RMSD_MCS_to_ref>  (428) 
1.7760588391154162

$$$$
ligand
     RDKit          3D

 60 65  0  0  0  0  0  0  0  0999 V2000
   24.8710    9.6160    7.7820 C   0  0  0  0  0  0  0  0  0  0  0  0
   25.4240   10.9650    7.3490 C   0  0  0  0  0  0  0  0  0  0  0  0
   26.5120   11.4910    8.2250 C   0  0  0  0  0  0  0  0  0  0  0  0
   27.3420   12.5710    7.9900 C   0  0  0  0  0  0  0  0  0  0  0  0
   28.1770   12.5960    9.0700 N   0  0  0  0  0  0  0  0  0  0  0  0
   29.2940   13.8080    9.4280 S   0  0  0  0  0  6  0  0  0  0  0  0
   29.5280   13.6770   10.8540 O   0  0  0  0  0  0  0  0  0  0  0  0
   30.3650   13.5970    8.4720 O   0  0  0  0  0  0  0  0  0  0  0  0
   28.5680   15.2300    9.0670 O   0  0  0  0  0  0  0  0  0  0  0  0
   27.7420   15.3080    7.9650 C   0  0  0  0  0  0  0  0  0  0  0  0
   26.3890   15.6780    8.1470 C   0  0  0  0  0  0  0  0  0  0  0  0
   25.8300   15.9770    9.4800 C   0  0  0  0  0  0  0  0  0  0  0  0
   24.5730   15.4410    9.8730 C   0  0  0  0  0  0  0  0  0  0  0  0
   24.0060   15.7220   11.1230 C   0  0  0  0  0  0  0  0  0  0  0  0
   24.7240   16.5400   11.9700 C   0  0  0  0  0  0  0  0  0  0  0  0
   25.9520   17.0580   11.6110 C   0  0  0  0  0  0  0  0  0  0  0  0
   26.5310   16.7980   10.3830 C   0  0  0  0  0  0  0  0  0  0  0  0
   26.4240   17.8840   12.7190 C   0  0  0  0  0  0  0  0  0  0  0  0
   27.4540   18.5290   12.6970 O   0  0  0  0  0  0  0  0  0  0  0  0
   25.4810   17.7940   13.7060 N   0  0  0  0  0  0  0  0  0  0  0  0
   25.4880   18.5680   14.9370 C   0  0  1  0  0  0  0  0  0  0  0  0
   26.4260   18.0230   16.0110 C   0  0  0  0  0  0  0  0  0  0  0  0
   26.3170   18.8880   17.2580 C   0  0  0  0  0  0  0  0  0  0  0  0
   26.6110   20.3390   16.9470 C   0  0  0  0  0  0  0  0  0  0  0  0
   27.0710   21.1080   17.7850 O   0  0  0  0  0  0  0  0  0  0  0  0
   26.2820   20.7770   15.6870 N   0  0  0  0  0  0  0  0  0  0  0  0
   25.8390   20.0270   14.6210 C   0  0  0  0  0  0  0  0  0  0  0  0
   25.6900   20.5440   13.5150 O   0  0  0  0  0  0  0  0  0  0  0  0
   24.4100   17.0400   13.3060 C   0  0  0  0  0  0  0  0  0  0  0  0
   23.3780   16.8050   13.9060 O   0  0  0  0  0  0  0  0  0  0  0  0
   25.5580   15.7440    7.0170 C   0  0  0  0  0  0  0  0  0  0  0  0
   26.0180   15.4300    5.7310 C   0  0  0  0  0  0  0  0  0  0  0  0
   27.3470   15.0240    5.6010 C   0  0  0  0  0  0  0  0  0  0  0  0
   28.0500   14.6360    4.4810 N   0  0  0  0  0  0  0  0  0  0  0  0
   29.3310   14.2950    4.8220 C   0  0  0  0  0  0  0  0  0  0  0  0
   29.4670   14.4750    6.1790 C   0  0  0  0  0  0  0  0  0  0  0  0
   28.2200   14.9440    6.6860 C   0  0  0  0  0  0  0  0  0  0  0  0
   27.8100   11.6190    9.9380 C   0  0  0  0  0  0  0  0  0  0  0  0
   26.8090   10.9180    9.4480 N   0  0  0  0  0  0  0  0  0  0  0  0
   24.8497    9.5640    8.8806 H   0  0  0  0  0  0  0  0  0  0  0  0
   23.8507    9.4948    7.3893 H   0  0  0  0  0  0  0  0  0  0  0  0
   25.5127    8.8135    7.3893 H   0  0  0  0  0  0  0  0  0  0  0  0
   25.8219   10.8631    6.3286 H   0  0  0  0  0  0  0  0  0  0  0  0
   24.5925   11.6823    7.4131 H   0  0  0  0  0  0  0  0  0  0  0  0
   27.3321   13.2550    7.1286 H   0  0  0  0  0  0  0  0  0  0  0  0
   24.0299   14.7866    9.1753 H   0  0  0  0  0  0  0  0  0  0  0  0
   23.0300   15.3079   11.4163 H   0  0  0  0  0  0  0  0  0  0  0  0
   27.5116   17.2207   10.1191 H   0  0  0  0  0  0  0  0  0  0  0  0
   24.4748   18.4930   15.3588 H   0  0  0  0  0  0  0  0  0  0  0  0
   26.1435   16.9884   16.2554 H   0  0  0  0  0  0  0  0  0  0  0  0
   27.4613   18.0395   15.6397 H   0  0  0  0  0  0  0  0  0  0  0  0
   25.2971   18.8075   17.6620 H   0  0  0  0  0  0  0  0  0  0  0  0
   27.0552   18.5335   17.9924 H   0  0  0  0  0  0  0  0  0  0  0  0
   26.3785   21.7887   15.5198 H   0  0  0  0  0  0  0  0  0  0  0  0
   24.5101   16.0527    7.1456 H   0  0  0  0  0  0  0  0  0  0  0  0
   25.3556   15.5010    4.8557 H   0  0  0  0  0  0  0  0  0  0  0  0
   27.6668   14.6068    3.5254 H   0  0  0  0  0  0  0  0  0  0  0  0
   30.1123   13.9403    4.1337 H   0  0  0  0  0  0  0  0  0  0  0  0
   30.3770   14.2898    6.7686 H   0  0  0  0  0  0  0  0  0  0  0  0
   28.2829   11.4382   10.9145 H   0  0  0  0  0  0  0  0  0  0  0  0
  1  2  1  0
  2  3  1  0
  3  4  2  0
  4  5  1  0
  5  6  1  0
  6  7  2  0
  6  8  2  0
  6  9  1  0
  9 10  1  0
 10 11  1  0
 11 12  1  0
 12 13  2  0
 13 14  1  0
 14 15  2  0
 15 16  1  0
 16 17  2  0
 16 18  1  0
 18 19  2  0
 18 20  1  0
 20 21  1  0
 21 22  1  0
 22 23  1  0
 23 24  1  0
 24 25  2  0
 24 26  1  0
 26 27  1  0
 27 28  2  0
 20 29  1  0
 29 30  2  0
 11 31  2  0
 31 32  1  0
 32 33  2  0
 33 34  1  0
 34 35  1  0
 35 36  2  0
 36 37  1  0
  5 38  1  0
 38 39  2  0
 39  3  1  0
 37 10  2  0
 17 12  1  0
 27 21  1  0
 37 33  1  0
 29 15  1  0
  1 40  1  0
  1 41  1  0
  1 42  1  0
  2 43  1  0
  2 44  1  0
  4 45  1  0
 13 46  1  0
 14 47  1  0
 17 48  1  0
 21 49  1  1
 22 50  1  0
 22 51  1  0
 23 52  1  0
 23 53  1  0
 26 54  1  0
 31 55  1  0
 32 56  1  0
 34 57  1  0
 35 58  1  0
 36 59  1  0
 38 60  1  0
M  END
>  <meeko>  (429) 
{"is_sidechain": [true], "free_energy": -12.61, "intermolecular_energy": 0.0, "internal_energy": -12.61, "cluster_size": 3, "cluster_id": 1, "rank_in_cluster": 1}

>  <_RMSD_MCS_to_ref>  (429) 
0.8876467113725632

$$$$
ligand
     RDKit          3D

 55 59  0  0  0  0  0  0  0  0999 V2000
   24.8710    9.6160    7.7820 C   0  0  0  0  0  0  0  0  0  0  0  0
   25.4240   10.9650    7.3490 C   0  0  0  0  0  0  0  0  0  0  0  0
   26.8140   11.1930    7.8320 C   0  0  0  0  0  0  0  0  0  0  0  0
   27.2470   11.9710    8.8870 C   0  0  0  0  0  0  0  0  0  0  0  0
   28.6010   11.8000    8.9010 N   0  0  0  0  0  0  0  0  0  0  0  0
   29.7050   12.7170    9.7900 S   0  0  0  0  0  6  0  0  0  0  0  0
   29.2820   12.5470   11.1690 O   0  0  0  0  0  0  0  0  0  0  0  0
   31.0010   12.2600    9.3260 O   0  0  0  0  0  0  0  0  0  0  0  0
   29.4730   14.2570    9.3080 O   0  0  0  0  0  0  0  0  0  0  0  0
   28.9990   14.4180    8.0380 C   0  0  0  0  0  0  0  0  0  0  0  0
   29.7960   13.9590    7.0460 N   0  0  0  0  0  0  0  0  0  0  0  0
   29.3160   14.1410    5.7960 C   0  0  0  0  0  0  0  0  0  0  0  0
   28.0920   14.7430    5.5490 C   0  0  0  0  0  0  0  0  0  0  0  0
   27.2850   15.1850    6.5420 N   0  0  0  0  0  0  0  0  0  0  0  0
   27.7460   15.0010    7.8090 C   0  0  0  0  0  0  0  0  0  0  0  0
   26.8640   15.4690    8.8860 C   0  0  0  0  0  0  0  0  0  0  0  0
   25.6100   14.8470    9.1240 C   0  0  0  0  0  0  0  0  0  0  0  0
   24.7900   15.2420   10.1850 C   0  0  0  0  0  0  0  0  0  0  0  0
   25.2470   16.2640   10.9910 C   0  0  0  0  0  0  0  0  0  0  0  0
   26.4620   16.9060   10.7770 C   0  0  0  0  0  0  0  0  0  0  0  0
   27.2770   16.5260    9.7240 C   0  0  0  0  0  0  0  0  0  0  0  0
   26.6900   17.9380   11.8310 C   0  0  0  0  0  0  0  0  0  0  0  0
   25.4630   17.8660   12.6160 N   0  0  0  0  0  0  0  0  0  0  0  0
   25.3260   18.4550   13.9430 C   0  0  2  0  0  0  0  0  0  0  0  0
   26.2450   19.6550   14.1500 C   0  0  0  0  0  0  0  0  0  0  0  0
   25.9880   20.2560   15.5230 C   0  0  0  0  0  0  0  0  0  0  0  0
   26.1540   19.2220   16.6120 C   0  0  0  0  0  0  0  0  0  0  0  0
   26.6180   19.4980   17.7140 O   0  0  0  0  0  0  0  0  0  0  0  0
   25.7420   17.9470   16.3160 N   0  0  0  0  0  0  0  0  0  0  0  0
   25.5890   17.4230   15.0530 C   0  0  0  0  0  0  0  0  0  0  0  0
   25.6700   16.2110   14.8690 O   0  0  0  0  0  0  0  0  0  0  0  0
   24.6310   16.8400   12.1910 C   0  0  0  0  0  0  0  0  0  0  0  0
   23.5980   16.4520   12.7010 O   0  0  0  0  0  0  0  0  0  0  0  0
   28.9580   11.0040    7.8590 C   0  0  0  0  0  0  0  0  0  0  0  0
   27.8920   10.5980    7.2030 N   0  0  0  0  0  0  0  0  0  0  0  0
   24.8497    9.5640    8.8806 H   0  0  0  0  0  0  0  0  0  0  0  0
   23.8507    9.4948    7.3893 H   0  0  0  0  0  0  0  0  0  0  0  0
   25.5127    8.8135    7.3893 H   0  0  0  0  0  0  0  0  0  0  0  0
   25.4203   11.0115    6.2500 H   0  0  0  0  0  0  0  0  0  0  0  0
   24.7851   11.7450    7.7889 H   0  0  0  0  0  0  0  0  0  0  0  0
   26.6383   12.5890    9.5634 H   0  0  0  0  0  0  0  0  0  0  0  0
   29.9193   13.7985    4.9423 H   0  0  0  0  0  0  0  0  0  0  0  0
   27.7639   14.8663    4.5063 H   0  0  0  0  0  0  0  0  0  0  0  0
   25.2765   14.0367    8.4590 H   0  0  0  0  0  0  0  0  0  0  0  0
   23.8198   14.7576   10.3697 H   0  0  0  0  0  0  0  0  0  0  0  0
   28.2323   17.0407    9.5436 H   0  0  0  0  0  0  0  0  0  0  0  0
   27.5692   17.6917   12.4445 H   0  0  0  0  0  0  0  0  0  0  0  0
   26.8925   18.9404   11.4259 H   0  0  0  0  0  0  0  0  0  0  0  0
   24.2839   18.8013   14.0063 H   0  0  0  0  0  0  0  0  0  0  0  0
   27.2938   19.3303   14.0818 H   0  0  0  0  0  0  0  0  0  0  0  0
   26.0449   20.4095   13.3749 H   0  0  0  0  0  0  0  0  0  0  0  0
   26.7010   21.0758   15.6950 H   0  0  0  0  0  0  0  0  0  0  0  0
   24.9536   20.6291   15.5518 H   0  0  0  0  0  0  0  0  0  0  0  0
   25.5282   17.3269   17.1102 H   0  0  0  0  0  0  0  0  0  0  0  0
   29.9931   10.7365    7.6002 H   0  0  0  0  0  0  0  0  0  0  0  0
  1  2  1  0
  2  3  1  0
  3  4  2  0
  4  5  1  0
  5  6  1  0
  6  7  2  0
  6  8  2  0
  6  9  1  0
  9 10  1  0
 10 11  2  0
 11 12  1  0
 12 13  2  0
 13 14  1  0
 14 15  2  0
 15 16  1  0
 16 17  2  0
 17 18  1  0
 18 19  2  0
 19 20  1  0
 20 21  2  0
 20 22  1  0
 22 23  1  0
 23 24  1  0
 24 25  1  0
 25 26  1  0
 26 27  1  0
 27 28  2  0
 27 29  1  0
 29 30  1  0
 30 31  2  0
 23 32  1  0
 32 33  2  0
  5 34  1  0
 34 35  2  0
 35  3  1  0
 15 10  1  0
 21 16  1  0
 30 24  1  0
 32 19  1  0
  1 36  1  0
  1 37  1  0
  1 38  1  0
  2 39  1  0
  2 40  1  0
  4 41  1  0
 12 42  1  0
 13 43  1  0
 17 44  1  0
 18 45  1  0
 21 46  1  0
 22 47  1  0
 22 48  1  0
 24 49  1  1
 25 50  1  0
 25 51  1  0
 26 52  1  0
 26 53  1  0
 29 54  1  0
 34 55  1  0
M  END
>  <meeko>  (430) 
{"is_sidechain": [true], "free_energy": -12.6, "intermolecular_energy": 0.0, "internal_energy": -12.6, "cluster_size": 7, "cluster_id": 1, "rank_in_cluster": 1}

>  <_RMSD_MCS_to_ref>  (430) 
1.9242684734451008

$$$$
ligand
     RDKit          3D

 63 68  0  0  0  0  0  0  0  0999 V2000
   24.8710    9.6170    7.7820 C   0  0  0  0  0  0  0  0  0  0  0  0
   25.4240   10.9640    7.3490 C   0  0  0  0  0  0  0  0  0  0  0  0
   26.8120   11.1870    7.8380 C   0  0  0  0  0  0  0  0  0  0  0  0
   27.2520   12.0340    8.8360 C   0  0  0  0  0  0  0  0  0  0  0  0
   28.6000   11.8230    8.8840 N   0  0  0  0  0  0  0  0  0  0  0  0
   29.7180   12.7710    9.7140 S   0  0  0  0  0  6  0  0  0  0  0  0
   31.0100   12.2440    9.3180 O   0  0  0  0  0  0  0  0  0  0  0  0
   29.2800   12.7410   11.0970 O   0  0  0  0  0  0  0  0  0  0  0  0
   29.5660   14.2800    9.0950 O   0  0  0  0  0  0  0  0  0  0  0  0
   29.0060   14.4180    7.8550 C   0  0  0  0  0  0  0  0  0  0  0  0
   27.7090   14.9610    7.7250 C   0  0  0  0  0  0  0  0  0  0  0  0
   26.9280   15.4060    8.8920 C   0  0  0  0  0  0  0  0  0  0  0  0
   25.6780   14.8050    9.1830 C   0  0  0  0  0  0  0  0  0  0  0  0
   24.9270   15.1890   10.2970 C   0  0  0  0  0  0  0  0  0  0  0  0
   25.4550   16.1720   11.1080 C   0  0  0  0  0  0  0  0  0  0  0  0
   26.6770   16.7880   10.8470 C   0  0  0  0  0  0  0  0  0  0  0  0
   27.4220   16.4180    9.7390 C   0  0  0  0  0  0  0  0  0  0  0  0
   26.9670   17.8040   11.9000 C   0  0  0  0  0  0  0  0  0  0  0  0
   25.8740   17.6070   12.8420 N   0  0  0  0  0  0  0  0  0  0  0  0
   25.6810   18.4940   13.9850 C   0  0  2  0  0  0  0  0  0  0  0  0
   26.2420   19.8990   13.7690 C   0  0  0  0  0  0  0  0  0  0  0  0
   25.9350   20.7570   14.9870 C   0  0  0  0  0  0  0  0  0  0  0  0
   26.4850   20.1340   16.2490 C   0  0  0  0  0  0  0  0  0  0  0  0
   26.7360   20.7980   17.2510 O   0  0  0  0  0  0  0  0  0  0  0  0
   26.6170   18.7690   16.2560 N   0  0  0  0  0  0  0  0  0  0  0  0
   26.2500   17.8790   15.2720 C   0  0  0  0  0  0  0  0  0  0  0  0
   26.2890   16.6680   15.4840 O   0  0  0  0  0  0  0  0  0  0  0  0
   24.9120   16.7400   12.3470 C   0  0  0  0  0  0  0  0  0  0  0  0
   23.8200   16.4750   12.8090 O   0  0  0  0  0  0  0  0  0  0  0  0
   27.1460   15.0750    6.4310 C   0  0  0  0  0  0  0  0  0  0  0  0
   27.8370   14.6410    5.2980 C   0  0  0  0  0  0  0  0  0  0  0  0
   29.0910   14.0930    5.4840 C   0  0  0  0  0  0  0  0  0  0  0  0
   29.6890   13.9700    6.7310 C   0  0  0  0  0  0  0  0  0  0  0  0
   31.0500   13.3540    6.6430 C   0  0  0  0  0  0  0  0  0  0  0  0
   31.2140   12.9830    5.1590 C   0  0  0  0  0  0  0  0  0  0  0  0
   29.9870   13.5350    4.4820 C   0  0  0  0  0  0  0  0  0  0  0  0
   29.7450   13.5100    3.2890 O   0  0  0  0  0  0  0  0  0  0  0  0
   28.9470   10.9420    7.9100 C   0  0  0  0  0  0  0  0  0  0  0  0
   27.8780   10.5180    7.2690 N   0  0  0  0  0  0  0  0  0  0  0  0
   24.8498    9.5653    8.8806 H   0  0  0  0  0  0  0  0  0  0  0  0
   23.8505    9.4962    7.3895 H   0  0  0  0  0  0  0  0  0  0  0  0
   25.5122    8.8140    7.3895 H   0  0  0  0  0  0  0  0  0  0  0  0
   25.4242   11.0098    6.2500 H   0  0  0  0  0  0  0  0  0  0  0  0
   24.7840   11.7464    7.7829 H   0  0  0  0  0  0  0  0  0  0  0  0
   26.6533   12.7215    9.4515 H   0  0  0  0  0  0  0  0  0  0  0  0
   25.2907   14.0194    8.5176 H   0  0  0  0  0  0  0  0  0  0  0  0
   23.9540   14.7261   10.5183 H   0  0  0  0  0  0  0  0  0  0  0  0
   28.3838   16.9065    9.5239 H   0  0  0  0  0  0  0  0  0  0  0  0
   27.9404   17.6154   12.3763 H   0  0  0  0  0  0  0  0  0  0  0  0
   27.0294   18.8311   11.5112 H   0  0  0  0  0  0  0  0  0  0  0  0
   24.5920   18.6052   14.0931 H   0  0  0  0  0  0  0  0  0  0  0  0
   27.3311   19.8415   13.6254 H   0  0  0  0  0  0  0  0  0  0  0  0
   25.7792   20.3469   12.8773 H   0  0  0  0  0  0  0  0  0  0  0  0
   26.3889   21.7496   14.8499 H   0  0  0  0  0  0  0  0  0  0  0  0
   24.8427   20.8396   15.0876 H   0  0  0  0  0  0  0  0  0  0  0  0
   27.0425   18.3600   17.1001 H   0  0  0  0  0  0  0  0  0  0  0  0
   26.1441   15.5143    6.3159 H   0  0  0  0  0  0  0  0  0  0  0  0
   27.3984   14.7323    4.2934 H   0  0  0  0  0  0  0  0  0  0  0  0
   31.8226   14.0740    6.9508 H   0  0  0  0  0  0  0  0  0  0  0  0
   31.1563   12.4818    7.3048 H   0  0  0  0  0  0  0  0  0  0  0  0
   32.1238   13.4413    4.7441 H   0  0  0  0  0  0  0  0  0  0  0  0
   31.3138   11.8973    5.0128 H   0  0  0  0  0  0  0  0  0  0  0  0
   29.9772   10.6269    7.6879 H   0  0  0  0  0  0  0  0  0  0  0  0
  1  2  1  0
  2  3  1  0
  3  4  2  0
  4  5  1  0
  5  6  1  0
  6  7  2  0
  6  8  2  0
  6  9  1  0
  9 10  1  0
 10 11  1  0
 11 12  1  0
 12 13  2  0
 13 14  1  0
 14 15  2  0
 15 16  1  0
 16 17  2  0
 16 18  1  0
 18 19  1  0
 19 20  1  0
 20 21  1  0
 21 22  1  0
 22 23  1  0
 23 24  2  0
 23 25  1  0
 25 26  1  0
 26 27  2  0
 19 28  1  0
 28 29  2  0
 11 30  2  0
 30 31  1  0
 31 32  2  0
 32 33  1  0
 33 34  1  0
 34 35  1  0
 35 36  1  0
 36 37  2  0
  5 38  1  0
 38 39  2  0
 39  3  1  0
 33 10  2  0
 17 12  1  0
 26 20  1  0
 36 32  1  0
 28 15  1  0
  1 40  1  0
  1 41  1  0
  1 42  1  0
  2 43  1  0
  2 44  1  0
  4 45  1  0
 13 46  1  0
 14 47  1  0
 17 48  1  0
 18 49  1  0
 18 50  1  0
 20 51  1  1
 21 52  1  0
 21 53  1  0
 22 54  1  0
 22 55  1  0
 25 56  1  0
 30 57  1  0
 31 58  1  0
 34 59  1  0
 34 60  1  0
 35 61  1  0
 35 62  1  0
 38 63  1  0
M  END
>  <meeko>  (431) 
{"is_sidechain": [true], "free_energy": -12.6, "intermolecular_energy": 0.0, "internal_energy": -12.6, "cluster_size": 4, "cluster_id": 1, "rank_in_cluster": 1}

>  <_RMSD_MCS_to_ref>  (431) 
1.9989725255477473

$$$$
ligand
     RDKit          3D

 63 68  0  0  0  0  0  0  0  0999 V2000
   24.8540    9.4010    7.6050 C   0  0  0  0  0  0  0  0  0  0  0  0
   25.5230   10.7560    7.4270 C   0  0  0  0  0  0  0  0  0  0  0  0
   26.9780   10.6260    7.1420 C   0  0  0  0  0  0  0  0  0  0  0  0
   27.7900   11.4510    6.3890 C   0  0  0  0  0  0  0  0  0  0  0  0
   29.0180   10.8510    6.4380 N   0  0  0  0  0  0  0  0  0  0  0  0
   30.3420   11.2460    5.4890 S   0  0  0  0  0  6  0  0  0  0  0  0
   31.5170   11.0980    6.3270 O   0  0  0  0  0  0  0  0  0  0  0  0
   30.1740   10.5490    4.2280 O   0  0  0  0  0  0  0  0  0  0  0  0
   30.2620   12.9350    5.0980 C   0  0  0  0  0  0  0  0  0  0  0  0
   31.0680   13.5810    4.1440 C   0  0  0  0  0  0  0  0  0  0  0  0
   30.6540   14.8940    4.1760 C   0  0  0  0  0  0  0  0  0  0  0  0
   29.6500   14.9860    5.1170 N   0  0  0  0  0  0  0  0  0  0  0  0
   28.9050   16.1300    5.5150 C   0  0  0  0  0  0  0  0  0  0  0  0
   28.8200   17.2670    4.7070 C   0  0  0  0  0  0  0  0  0  0  0  0
   28.0720   18.3640    5.1350 C   0  0  0  0  0  0  0  0  0  0  0  0
   27.4080   18.3330    6.3660 C   0  0  0  0  0  0  0  0  0  0  0  0
   27.4790   17.2060    7.1990 C   0  0  0  0  0  0  0  0  0  0  0  0
   26.7850   17.1600    8.5000 C   0  0  0  0  0  0  0  0  0  0  0  0
   25.6920   16.2800    8.7070 C   0  0  0  0  0  0  0  0  0  0  0  0
   25.0070   16.2360    9.9250 C   0  0  0  0  0  0  0  0  0  0  0  0
   25.4330   17.0880   10.9240 C   0  0  0  0  0  0  0  0  0  0  0  0
   26.5030   17.9590   10.7590 C   0  0  0  0  0  0  0  0  0  0  0  0
   27.1900   18.0040    9.5570 C   0  0  0  0  0  0  0  0  0  0  0  0
   26.7360   18.7250   12.0170 C   0  0  0  0  0  0  0  0  0  0  0  0
   25.6290   18.2960   12.8610 N   0  0  0  0  0  0  0  0  0  0  0  0
   25.5760   18.6450   14.2770 C   0  0  1  0  0  0  0  0  0  0  0  0
   26.6500   17.9570   15.1180 C   0  0  0  0  0  0  0  0  0  0  0  0
   26.4660   18.3400   16.5790 C   0  0  0  0  0  0  0  0  0  0  0  0
   26.5040   19.8400   16.7610 C   0  0  0  0  0  0  0  0  0  0  0  0
   26.7980   20.3620   17.8320 O   0  0  0  0  0  0  0  0  0  0  0  0
   26.1100   20.6000   15.6890 N   0  0  0  0  0  0  0  0  0  0  0  0
   25.6240   20.1670   14.4760 C   0  0  0  0  0  0  0  0  0  0  0  0
   25.1660   20.9730   13.6680 O   0  0  0  0  0  0  0  0  0  0  0  0
   24.9070   17.2610   12.2820 C   0  0  0  0  0  0  0  0  0  0  0  0
   24.0180   16.5920   12.7700 O   0  0  0  0  0  0  0  0  0  0  0  0
   28.2370   16.1100    6.7530 C   0  0  0  0  0  0  0  0  0  0  0  0
   29.4020   13.7780    5.6860 N   0  0  0  0  0  0  0  0  0  0  0  0
   28.9190    9.7020    7.1580 C   0  0  0  0  0  0  0  0  0  0  0  0
   27.6960    9.5500    7.6250 N   0  0  0  0  0  0  0  0  0  0  0  0
   24.7465    9.1833    8.6779 H   0  0  0  0  0  0  0  0  0  0  0  0
   23.8606    9.4177    7.1329 H   0  0  0  0  0  0  0  0  0  0  0  0
   25.4713    8.6225    7.1329 H   0  0  0  0  0  0  0  0  0  0  0  0
   25.0425   11.2820    6.5889 H   0  0  0  0  0  0  0  0  0  0  0  0
   25.4095   11.3171    8.3663 H   0  0  0  0  0  0  0  0  0  0  0  0
   27.5123   12.3793    5.8683 H   0  0  0  0  0  0  0  0  0  0  0  0
   31.8528   13.1373    3.5138 H   0  0  0  0  0  0  0  0  0  0  0  0
   31.0508   15.7174    3.5640 H   0  0  0  0  0  0  0  0  0  0  0  0
   29.3403   17.2968    3.7383 H   0  0  0  0  0  0  0  0  0  0  0  0
   28.0038   19.2597    4.5001 H   0  0  0  0  0  0  0  0  0  0  0  0
   26.8207   19.2063    6.6861 H   0  0  0  0  0  0  0  0  0  0  0  0
   25.3756   15.6159    7.8892 H   0  0  0  0  0  0  0  0  0  0  0  0
   24.1618   15.5494   10.0811 H   0  0  0  0  0  0  0  0  0  0  0  0
   28.0409   18.6890    9.4275 H   0  0  0  0  0  0  0  0  0  0  0  0
   27.7042   18.4622   12.4682 H   0  0  0  0  0  0  0  0  0  0  0  0
   26.7735   19.8138   11.8652 H   0  0  0  0  0  0  0  0  0  0  0  0
   24.6094   18.2667   14.6411 H   0  0  0  0  0  0  0  0  0  0  0  0
   26.5588   16.8661   15.0097 H   0  0  0  0  0  0  0  0  0  0  0  0
   27.6459   18.2751   14.7761 H   0  0  0  0  0  0  0  0  0  0  0  0
   25.4948   17.9607   16.9296 H   0  0  0  0  0  0  0  0  0  0  0  0
   27.2884   17.8981   17.1606 H   0  0  0  0  0  0  0  0  0  0  0  0
   26.1874   21.6204   15.8062 H   0  0  0  0  0  0  0  0  0  0  0  0
   28.3098   15.2144    7.3875 H   0  0  0  0  0  0  0  0  0  0  0  0
   29.7457    8.9965    7.3274 H   0  0  0  0  0  0  0  0  0  0  0  0
  1  2  1  0
  2  3  1  0
  3  4  2  0
  4  5  1  0
  5  6  1  0
  6  7  2  0
  6  8  2  0
  6  9  1  0
  9 10  1  0
 10 11  2  0
 11 12  1  0
 12 13  1  0
 13 14  2  0
 14 15  1  0
 15 16  2  0
 16 17  1  0
 17 18  1  0
 18 19  2  0
 19 20  1  0
 20 21  2  0
 21 22  1  0
 22 23  2  0
 22 24  1  0
 24 25  1  0
 25 26  1  0
 26 27  1  0
 27 28  1  0
 28 29  1  0
 29 30  2  0
 29 31  1  0
 31 32  1  0
 32 33  2  0
 25 34  1  0
 34 35  2  0
 17 36  2  0
 12 37  1  0
  5 38  1  0
 38 39  2  0
 39  3  1  0
 37  9  2  0
 36 13  1  0
 23 18  1  0
 32 26  1  0
 34 21  1  0
  1 40  1  0
  1 41  1  0
  1 42  1  0
  2 43  1  0
  2 44  1  0
  4 45  1  0
 10 46  1  0
 11 47  1  0
 14 48  1  0
 15 49  1  0
 16 50  1  0
 19 51  1  0
 20 52  1  0
 23 53  1  0
 24 54  1  0
 24 55  1  0
 26 56  1  1
 27 57  1  0
 27 58  1  0
 28 59  1  0
 28 60  1  0
 31 61  1  0
 36 62  1  0
 38 63  1  0
M  END
>  <meeko>  (432) 
{"is_sidechain": [true], "free_energy": -12.59, "intermolecular_energy": 0.0, "internal_energy": -12.59, "cluster_size": 20, "cluster_id": 1, "rank_in_cluster": 1}

>  <_RMSD_MCS_to_ref>  (432) 
0.7465037768751661

$$$$
ligand
     RDKit          3D

 59 64  0  0  0  0  0  0  0  0999 V2000
   24.8710    9.6160    7.7820 C   0  0  0  0  0  0  0  0  0  0  0  0
   25.4240   10.9650    7.3490 C   0  0  0  0  0  0  0  0  0  0  0  0
   25.0420   11.3050    5.9510 C   0  0  0  0  0  0  0  0  0  0  0  0
   24.3290   12.3910    5.4840 C   0  0  0  0  0  0  0  0  0  0  0  0
   24.3000   12.2150    4.1300 N   0  0  0  0  0  0  0  0  0  0  0  0
   23.3810   13.1130    3.0400 S   0  0  0  0  0  6  0  0  0  0  0  0
   22.0750   13.2260    3.6640 O   0  0  0  0  0  0  0  0  0  0  0  0
   23.5520   12.4340    1.7680 O   0  0  0  0  0  0  0  0  0  0  0  0
   24.0720   14.5740    2.9700 O   0  0  0  0  0  0  0  0  0  0  0  0
   25.2770   14.8390    3.4980 C   0  0  0  0  0  0  0  0  0  0  0  0
   26.2760   14.7800    2.6120 N   0  0  0  0  0  0  0  0  0  0  0  0
   27.3600   15.0800    3.3520 N   0  0  0  0  0  0  0  0  0  0  0  0
   27.0790   15.3260    4.6640 C   0  0  0  0  0  0  0  0  0  0  0  0
   27.9780   15.6510    5.6100 N   0  0  0  0  0  0  0  0  0  0  0  0
   27.4090   15.8390    6.8270 C   0  0  0  0  0  0  0  0  0  0  0  0
   26.0510   15.7200    7.1420 C   0  0  0  0  0  0  0  0  0  0  0  0
   25.5530   15.9520    8.5080 C   0  0  0  0  0  0  0  0  0  0  0  0
   24.3500   15.3450    8.9530 C   0  0  0  0  0  0  0  0  0  0  0  0
   23.8580   15.5530   10.2450 C   0  0  0  0  0  0  0  0  0  0  0  0
   24.5910   16.3730   11.0790 C   0  0  0  0  0  0  0  0  0  0  0  0
   25.7710   16.9890   10.6760 C   0  0  0  0  0  0  0  0  0  0  0  0
   26.2630   16.7900    9.3960 C   0  0  0  0  0  0  0  0  0  0  0  0
   26.3090   17.8290   11.7850 C   0  0  0  0  0  0  0  0  0  0  0  0
   25.3930   17.5400   12.8800 N   0  0  0  0  0  0  0  0  0  0  0  0
   25.4170   18.3200   14.1140 C   0  0  2  0  0  0  0  0  0  0  0  0
   26.1080   19.6760   13.9730 C   0  0  0  0  0  0  0  0  0  0  0  0
   26.0200   20.4250   15.2940 C   0  0  0  0  0  0  0  0  0  0  0  0
   26.6170   19.6180   16.4220 C   0  0  0  0  0  0  0  0  0  0  0  0
   27.0330   20.1420   17.4520 O   0  0  0  0  0  0  0  0  0  0  0  0
   26.6000   18.2530   16.2830 N   0  0  0  0  0  0  0  0  0  0  0  0
   26.0350   17.5150   15.2680 C   0  0  0  0  0  0  0  0  0  0  0  0
   25.9520   16.2910   15.3620 O   0  0  0  0  0  0  0  0  0  0  0  0
   24.3180   16.7670   12.4650 C   0  0  0  0  0  0  0  0  0  0  0  0
   23.3180   16.4640   13.0860 O   0  0  0  0  0  0  0  0  0  0  0  0
   25.1770   15.3730    6.0950 C   0  0  0  0  0  0  0  0  0  0  0  0
   25.7060   15.1730    4.8070 C   0  0  0  0  0  0  0  0  0  0  0  0
   24.8940   11.0350    3.8220 C   0  0  0  0  0  0  0  0  0  0  0  0
   25.3830   10.4680    4.9060 N   0  0  0  0  0  0  0  0  0  0  0  0
   24.8497    9.5640    8.8806 H   0  0  0  0  0  0  0  0  0  0  0  0
   23.8507    9.4948    7.3893 H   0  0  0  0  0  0  0  0  0  0  0  0
   25.5127    8.8135    7.3893 H   0  0  0  0  0  0  0  0  0  0  0  0
   25.0322   11.7415    8.0224 H   0  0  0  0  0  0  0  0  0  0  0  0
   26.5217   10.9118    7.3965 H   0  0  0  0  0  0  0  0  0  0  0  0
   23.8857   13.2105    6.0687 H   0  0  0  0  0  0  0  0  0  0  0  0
   28.3131   15.1200    2.9635 H   0  0  0  0  0  0  0  0  0  0  0  0
   28.0846   16.1131    7.6507 H   0  0  0  0  0  0  0  0  0  0  0  0
   23.7907   14.6947    8.2643 H   0  0  0  0  0  0  0  0  0  0  0  0
   22.9235   15.0817   10.5836 H   0  0  0  0  0  0  0  0  0  0  0  0
   27.1949   17.2786    9.0755 H   0  0  0  0  0  0  0  0  0  0  0  0
   27.3379   17.5361   12.0410 H   0  0  0  0  0  0  0  0  0  0  0  0
   26.3654   18.8985   11.5342 H   0  0  0  0  0  0  0  0  0  0  0  0
   24.3639   18.5348   14.3484 H   0  0  0  0  0  0  0  0  0  0  0  0
   27.1643   19.5241   13.7064 H   0  0  0  0  0  0  0  0  0  0  0  0
   25.6133   20.2613   13.1839 H   0  0  0  0  0  0  0  0  0  0  0  0
   26.5669   21.3752   15.2045 H   0  0  0  0  0  0  0  0  0  0  0  0
   24.9590   20.6070   15.5204 H   0  0  0  0  0  0  0  0  0  0  0  0
   27.0663   17.7160   17.0281 H   0  0  0  0  0  0  0  0  0  0  0  0
   24.0987   15.2601    6.2806 H   0  0  0  0  0  0  0  0  0  0  0  0
   24.9584   10.6110    2.8091 H   0  0  0  0  0  0  0  0  0  0  0  0
  1  2  1  0
  2  3  1  0
  3  4  2  0
  4  5  1  0
  5  6  1  0
  6  7  2  0
  6  8  2  0
  6  9  1  0
  9 10  1  0
 10 11  2  0
 11 12  1  0
 12 13  1  0
 13 14  2  0
 14 15  1  0
 15 16  2  0
 16 17  1  0
 17 18  2  0
 18 19  1  0
 19 20  2  0
 20 21  1  0
 21 22  2  0
 21 23  1  0
 23 24  1  0
 24 25  1  0
 25 26  1  0
 26 27  1  0
 27 28  1  0
 28 29  2  0
 28 30  1  0
 30 31  1  0
 31 32  2  0
 24 33  1  0
 33 34  2  0
 16 35  1  0
 35 36  2  0
  5 37  1  0
 37 38  2  0
 38  3  1  0
 36 10  1  0
 36 13  1  0
 22 17  1  0
 31 25  1  0
 33 20  1  0
  1 39  1  0
  1 40  1  0
  1 41  1  0
  2 42  1  0
  2 43  1  0
  4 44  1  0
 12 45  1  0
 15 46  1  0
 18 47  1  0
 19 48  1  0
 22 49  1  0
 23 50  1  0
 23 51  1  0
 25 52  1  1
 26 53  1  0
 26 54  1  0
 27 55  1  0
 27 56  1  0
 30 57  1  0
 35 58  1  0
 37 59  1  0
M  END
>  <meeko>  (433) 
{"is_sidechain": [true], "free_energy": -12.59, "intermolecular_energy": 0.0, "internal_energy": -12.59, "cluster_size": 1, "cluster_id": 2, "rank_in_cluster": 1}

>  <_RMSD_MCS_to_ref>  (433) 
1.6779347738404968

$$$$
ligand
     RDKit          3D

 57 61  0  0  0  0  0  0  0  0999 V2000
   24.8540    9.4020    7.6050 C   0  0  0  0  0  0  0  0  0  0  0  0
   25.5230   10.7550    7.4270 C   0  0  0  0  0  0  0  0  0  0  0  0
   25.0130   11.4830    6.2340 C   0  0  0  0  0  0  0  0  0  0  0  0
   25.2590   12.7830    5.8370 C   0  0  0  0  0  0  0  0  0  0  0  0
   24.5260   12.9280    4.6920 N   0  0  0  0  0  0  0  0  0  0  0  0
   24.5280   14.2760    3.7010 S   0  0  0  0  0  6  0  0  0  0  0  0
   23.3600   15.0750    4.0080 O   0  0  0  0  0  0  0  0  0  0  0  0
   24.7480   13.7360    2.3690 O   0  0  0  0  0  0  0  0  0  0  0  0
   25.8840   15.2940    3.9510 C   0  0  0  0  0  0  0  0  0  0  0  0
   26.8200   15.5730    2.9720 C   0  0  0  0  0  0  0  0  0  0  0  0
   27.8110   16.2650    3.5870 N   0  0  0  0  0  0  0  0  0  0  0  0
   27.5990   16.4320    4.9010 N   0  0  0  0  0  0  0  0  0  0  0  0
   26.3820   15.9190    5.1190 C   0  0  0  0  0  0  0  0  0  0  0  0
   25.9140   16.0640    6.4060 N   0  0  0  0  0  0  0  0  0  0  0  0
   26.2690   15.2730    7.4680 C   0  0  0  0  0  0  0  0  0  0  0  0
   27.0280   14.3160    7.3930 O   0  0  0  0  0  0  0  0  0  0  0  0
   25.6370   15.6080    8.7780 C   0  0  0  0  0  0  0  0  0  0  0  0
   24.3980   15.0490    9.1710 C   0  0  0  0  0  0  0  0  0  0  0  0
   23.8170   15.3940   10.3950 C   0  0  0  0  0  0  0  0  0  0  0  0
   24.4920   16.3040   11.1870 C   0  0  0  0  0  0  0  0  0  0  0  0
   25.7060   16.8750   10.8130 C   0  0  0  0  0  0  0  0  0  0  0  0
   26.2930   16.5370    9.6060 C   0  0  0  0  0  0  0  0  0  0  0  0
   26.1800   17.8050   11.8780 C   0  0  0  0  0  0  0  0  0  0  0  0
   25.0800   17.7870   12.8330 N   0  0  0  0  0  0  0  0  0  0  0  0
   25.2130   18.3950   14.1520 C   0  0  1  0  0  0  0  0  0  0  0  0
   26.3020   17.7610   15.0160 C   0  0  0  0  0  0  0  0  0  0  0  0
   26.3120   18.4270   16.3830 C   0  0  0  0  0  0  0  0  0  0  0  0
   26.5090   19.9210   16.2620 C   0  0  0  0  0  0  0  0  0  0  0  0
   26.9680   20.5970   17.1790 O   0  0  0  0  0  0  0  0  0  0  0  0
   26.0690   20.5090   15.1020 N   0  0  0  0  0  0  0  0  0  0  0  0
   25.4260   19.9120   14.0420 C   0  0  0  0  0  0  0  0  0  0  0  0
   24.9730   20.5980   13.1250 O   0  0  0  0  0  0  0  0  0  0  0  0
   24.1200   16.8430   12.4990 C   0  0  0  0  0  0  0  0  0  0  0  0
   23.1530   16.4830   13.1420 O   0  0  0  0  0  0  0  0  0  0  0  0
   23.9410   11.7420    4.3860 C   0  0  0  0  0  0  0  0  0  0  0  0
   24.1890   10.8490    5.3250 N   0  0  0  0  0  0  0  0  0  0  0  0
   24.7464    9.1845    8.6779 H   0  0  0  0  0  0  0  0  0  0  0  0
   23.8606    9.4192    7.1330 H   0  0  0  0  0  0  0  0  0  0  0  0
   25.4708    8.6230    7.1330 H   0  0  0  0  0  0  0  0  0  0  0  0
   25.3319   11.3649    8.3223 H   0  0  0  0  0  0  0  0  0  0  0  0
   26.5996   10.5822    7.2817 H   0  0  0  0  0  0  0  0  0  0  0  0
   25.8983   13.5305    6.3294 H   0  0  0  0  0  0  0  0  0  0  0  0
   26.7707   15.2909    1.9099 H   0  0  0  0  0  0  0  0  0  0  0  0
   28.6413   16.6254    3.0955 H   0  0  0  0  0  0  0  0  0  0  0  0
   25.2449   16.8264    6.5847 H   0  0  0  0  0  0  0  0  0  0  0  0
   23.8870   14.3361    8.5071 H   0  0  0  0  0  0  0  0  0  0  0  0
   22.8593   14.9580   10.7155 H   0  0  0  0  0  0  0  0  0  0  0  0
   27.2505   16.9845    9.3012 H   0  0  0  0  0  0  0  0  0  0  0  0
   27.1103   17.4401   12.3378 H   0  0  0  0  0  0  0  0  0  0  0  0
   26.4165   18.8121   11.5040 H   0  0  0  0  0  0  0  0  0  0  0  0
   24.2605   18.1997   14.6663 H   0  0  0  0  0  0  0  0  0  0  0  0
   26.0990   16.6862   15.1326 H   0  0  0  0  0  0  0  0  0  0  0  0
   27.2808   17.8974   14.5330 H   0  0  0  0  0  0  0  0  0  0  0  0
   25.3528   18.2311   16.8846 H   0  0  0  0  0  0  0  0  0  0  0  0
   27.1469   18.0118   16.9666 H   0  0  0  0  0  0  0  0  0  0  0  0
   26.2413   21.5207   15.0145 H   0  0  0  0  0  0  0  0  0  0  0  0
   23.3439   11.5520    3.4819 H   0  0  0  0  0  0  0  0  0  0  0  0
  1  2  1  0
  2  3  1  0
  3  4  2  0
  4  5  1  0
  5  6  1  0
  6  7  2  0
  6  8  2  0
  6  9  1  0
  9 10  2  0
 10 11  1  0
 11 12  1  0
 12 13  2  0
 13 14  1  0
 14 15  1  0
 15 16  2  0
 15 17  1  0
 17 18  2  0
 18 19  1  0
 19 20  2  0
 20 21  1  0
 21 22  2  0
 21 23  1  0
 23 24  1  0
 24 25  1  0
 25 26  1  0
 26 27  1  0
 27 28  1  0
 28 29  2  0
 28 30  1  0
 30 31  1  0
 31 32  2  0
 24 33  1  0
 33 34  2  0
  5 35  1  0
 35 36  2  0
 36  3  1  0
 13  9  1  0
 22 17  1  0
 31 25  1  0
 33 20  1  0
  1 37  1  0
  1 38  1  0
  1 39  1  0
  2 40  1  0
  2 41  1  0
  4 42  1  0
 10 43  1  0
 11 44  1  0
 14 45  1  0
 18 46  1  0
 19 47  1  0
 22 48  1  0
 23 49  1  0
 23 50  1  0
 25 51  1  1
 26 52  1  0
 26 53  1  0
 27 54  1  0
 27 55  1  0
 30 56  1  0
 35 57  1  0
M  END
>  <meeko>  (434) 
{"is_sidechain": [true], "free_energy": -12.58, "intermolecular_energy": 0.0, "internal_energy": -12.58, "cluster_size": 15, "cluster_id": 1, "rank_in_cluster": 1}

>  <_RMSD_MCS_to_ref>  (434) 
0.577098682106352

$$$$
ligand
     RDKit          3D

 57 61  0  0  0  0  0  0  0  0999 V2000
   24.8710    9.6160    7.7820 C   0  0  0  0  0  0  0  0  0  0  0  0
   25.4240   10.9650    7.3490 C   0  0  0  0  0  0  0  0  0  0  0  0
   26.6610   11.3300    8.0920 C   0  0  0  0  0  0  0  0  0  0  0  0
   27.9530   11.4390    7.6200 C   0  0  0  0  0  0  0  0  0  0  0  0
   28.6770   11.8260    8.7080 N   0  0  0  0  0  0  0  0  0  0  0  0
   30.2790   12.3330    8.7210 S   0  0  0  0  0  6  0  0  0  0  0  0
   31.0890   11.1290    8.7640 O   0  0  0  0  0  0  0  0  0  0  0  0
   30.3250   13.3240    9.7820 O   0  0  0  0  0  0  0  0  0  0  0  0
   30.4840   13.1220    7.1510 C   0  0  0  0  0  0  0  0  0  0  0  0
   31.6110   12.7430    6.4970 N   0  0  0  0  0  0  0  0  0  0  0  0
   31.8000   13.3410    5.3260 C   0  0  0  0  0  0  0  0  0  0  0  0
   30.9880   14.2580    4.8000 N   0  0  0  0  0  0  0  0  0  0  0  0
   29.8980   14.6030    5.4810 C   0  0  0  0  0  0  0  0  0  0  0  0
   29.1110   15.5400    4.9420 N   0  0  0  0  0  0  0  0  0  0  0  0
   27.9970   15.9210    5.6170 C   0  0  0  0  0  0  0  0  0  0  0  0
   27.6540   15.3590    6.8240 C   0  0  0  0  0  0  0  0  0  0  0  0
   26.4230   15.7810    7.5480 C   0  0  0  0  0  0  0  0  0  0  0  0
   25.5010   16.2810    6.9180 O   0  0  0  0  0  0  0  0  0  0  0  0
   26.4790   15.5270    8.9060 N   0  0  0  0  0  0  0  0  0  0  0  0
   25.5410   15.8760    9.8940 C   0  0  0  0  0  0  0  0  0  0  0  0
   24.3220   15.1900    9.8890 C   0  0  0  0  0  0  0  0  0  0  0  0
   23.3490   15.4680   10.8480 C   0  0  0  0  0  0  0  0  0  0  0  0
   23.5860   16.4330   11.8250 C   0  0  0  0  0  0  0  0  0  0  0  0
   24.8030   17.1270   11.8560 C   0  0  0  0  0  0  0  0  0  0  0  0
   25.0850   18.1980   12.8980 C   0  0  1  0  0  0  0  0  0  0  0  0
   25.2030   17.5650   14.2880 C   0  0  0  0  0  0  0  0  0  0  0  0
   25.4220   18.6480   15.3310 C   0  0  0  0  0  0  0  0  0  0  0  0
   26.6430   19.4720   15.0080 C   0  0  0  0  0  0  0  0  0  0  0  0
   27.2860   20.0610   15.8710 O   0  0  0  0  0  0  0  0  0  0  0  0
   26.9700   19.5850   13.6800 N   0  0  0  0  0  0  0  0  0  0  0  0
   26.3230   19.0410   12.5930 C   0  0  0  0  0  0  0  0  0  0  0  0
   26.7220   19.2970   11.4580 O   0  0  0  0  0  0  0  0  0  0  0  0
   25.7710   16.8420   10.8750 C   0  0  0  0  0  0  0  0  0  0  0  0
   28.4260   14.4030    7.4060 N   0  0  0  0  0  0  0  0  0  0  0  0
   29.5540   14.0430    6.7220 C   0  0  0  0  0  0  0  0  0  0  0  0
   27.8580   11.8980    9.7880 C   0  0  0  0  0  0  0  0  0  0  0  0
   26.6180   11.6250    9.4420 N   0  0  0  0  0  0  0  0  0  0  0  0
   24.8497    9.5640    8.8806 H   0  0  0  0  0  0  0  0  0  0  0  0
   23.8507    9.4948    7.3893 H   0  0  0  0  0  0  0  0  0  0  0  0
   25.5127    8.8135    7.3893 H   0  0  0  0  0  0  0  0  0  0  0  0
   25.6551   10.9248    6.2743 H   0  0  0  0  0  0  0  0  0  0  0  0
   24.6619   11.7280    7.5662 H   0  0  0  0  0  0  0  0  0  0  0  0
   28.3161   11.2553    6.5980 H   0  0  0  0  0  0  0  0  0  0  0  0
   32.6922   13.0587    4.7478 H   0  0  0  0  0  0  0  0  0  0  0  0
   27.3510   16.7005    5.1868 H   0  0  0  0  0  0  0  0  0  0  0  0
   27.3120   15.0185    9.2352 H   0  0  0  0  0  0  0  0  0  0  0  0
   24.1295   14.4251    9.1223 H   0  0  0  0  0  0  0  0  0  0  0  0
   22.3926   14.9247   10.8334 H   0  0  0  0  0  0  0  0  0  0  0  0
   22.8130   16.6513   12.5765 H   0  0  0  0  0  0  0  0  0  0  0  0
   24.2292   18.8885   12.8704 H   0  0  0  0  0  0  0  0  0  0  0  0
   24.2776   17.0172   14.5194 H   0  0  0  0  0  0  0  0  0  0  0  0
   26.0572   16.8721   14.2997 H   0  0  0  0  0  0  0  0  0  0  0  0
   24.5408   19.3059   15.3566 H   0  0  0  0  0  0  0  0  0  0  0  0
   25.5731   18.1669   16.3086 H   0  0  0  0  0  0  0  0  0  0  0  0
   27.8060   20.1486   13.4695 H   0  0  0  0  0  0  0  0  0  0  0  0
   26.7249   17.3897   10.8814 H   0  0  0  0  0  0  0  0  0  0  0  0
   28.1845   12.1490   10.8080 H   0  0  0  0  0  0  0  0  0  0  0  0
  1  2  1  0
  2  3  1  0
  3  4  2  0
  4  5  1  0
  5  6  1  0
  6  7  2  0
  6  8  2  0
  6  9  1  0
  9 10  2  0
 10 11  1  0
 11 12  2  0
 12 13  1  0
 13 14  2  0
 14 15  1  0
 15 16  2  0
 16 17  1  0
 17 18  2  0
 17 19  1  0
 19 20  1  0
 20 21  2  0
 21 22  1  0
 22 23  2  0
 23 24  1  0
 24 25  1  0
 25 26  1  0
 26 27  1  0
 27 28  1  0
 28 29  2  0
 28 30  1  0
 30 31  1  0
 31 32  2  0
 24 33  2  0
 16 34  1  0
 34 35  2  0
  5 36  1  0
 36 37  2  0
 37  3  1  0
 35  9  1  0
 35 13  1  0
 33 20  1  0
 31 25  1  0
  1 38  1  0
  1 39  1  0
  1 40  1  0
  2 41  1  0
  2 42  1  0
  4 43  1  0
 11 44  1  0
 15 45  1  0
 19 46  1  0
 21 47  1  0
 22 48  1  0
 23 49  1  0
 25 50  1  1
 26 51  1  0
 26 52  1  0
 27 53  1  0
 27 54  1  0
 30 55  1  0
 33 56  1  0
 36 57  1  0
M  END
>  <meeko>  (435) 
{"is_sidechain": [true], "free_energy": -12.58, "intermolecular_energy": 0.0, "internal_energy": -12.58, "cluster_size": 19, "cluster_id": 1, "rank_in_cluster": 1}

>  <_RMSD_MCS_to_ref>  (435) 
1.9488154735633645

$$$$
ligand
     RDKit          3D

 57 61  0  0  0  0  0  0  0  0999 V2000
   24.8540    9.4020    7.6050 C   0  0  0  0  0  0  0  0  0  0  0  0
   25.5230   10.7550    7.4270 C   0  0  0  0  0  0  0  0  0  0  0  0
   27.0000   10.6750    7.5860 C   0  0  0  0  0  0  0  0  0  0  0  0
   27.9210   11.7020    7.6560 C   0  0  0  0  0  0  0  0  0  0  0  0
   29.1220   11.0670    7.7950 N   0  0  0  0  0  0  0  0  0  0  0  0
   30.6460   11.7780    7.6380 S   0  0  0  0  0  6  0  0  0  0  0  0
   30.7860   12.0100    6.2120 O   0  0  0  0  0  0  0  0  0  0  0  0
   31.5540   10.8900    8.3430 O   0  0  0  0  0  0  0  0  0  0  0  0
   30.6080   13.2340    8.3880 O   0  0  0  0  0  0  0  0  0  0  0  0
   29.4020   13.7610    8.7610 C   0  0  0  0  0  0  0  0  0  0  0  0
   28.8420   13.3270    9.9600 C   0  0  0  0  0  0  0  0  0  0  0  0
   27.6180   13.8500   10.3810 C   0  0  0  0  0  0  0  0  0  0  0  0
   26.9320   14.7940    9.6010 C   0  0  0  0  0  0  0  0  0  0  0  0
   25.6460   15.3390   10.0470 C   0  0  0  0  0  0  0  0  0  0  0  0
   24.4430   14.9680    9.4110 C   0  0  0  0  0  0  0  0  0  0  0  0
   23.1950   15.4720    9.8300 C   0  0  0  0  0  0  0  0  0  0  0  0
   23.1150   16.3660   10.8940 C   0  0  0  0  0  0  0  0  0  0  0  0
   24.3000   16.7300   11.5020 C   0  0  0  0  0  0  0  0  0  0  0  0
   25.5440   16.2390   11.1030 C   0  0  0  0  0  0  0  0  0  0  0  0
   26.6150   16.8320   11.9620 C   0  0  0  0  0  0  0  0  0  0  0  0
   25.8750   17.7510   12.8160 N   0  0  0  0  0  0  0  0  0  0  0  0
   26.4450   18.3800   14.0010 C   0  0  2  0  0  0  0  0  0  0  0  0
   25.9800   17.7190   15.2940 C   0  0  0  0  0  0  0  0  0  0  0  0
   26.6830   18.3700   16.4760 C   0  0  0  0  0  0  0  0  0  0  0  0
   26.4570   19.8630   16.4910 C   0  0  0  0  0  0  0  0  0  0  0  0
   26.3280   20.4980   17.5330 O   0  0  0  0  0  0  0  0  0  0  0  0
   26.4190   20.4900   15.2710 N   0  0  0  0  0  0  0  0  0  0  0  0
   26.1300   19.8850   14.0700 C   0  0  0  0  0  0  0  0  0  0  0  0
   25.6440   20.5380   13.1480 O   0  0  0  0  0  0  0  0  0  0  0  0
   24.5060   17.6510   12.6250 C   0  0  0  0  0  0  0  0  0  0  0  0
   23.6200   18.2070   13.2470 O   0  0  0  0  0  0  0  0  0  0  0  0
   27.5050   15.1990    8.3840 C   0  0  0  0  0  0  0  0  0  0  0  0
   28.7300   14.6790    7.9590 C   0  0  0  0  0  0  0  0  0  0  0  0
   28.9210    9.7240    7.7690 C   0  0  0  0  0  0  0  0  0  0  0  0
   27.6370    9.4520    7.6570 N   0  0  0  0  0  0  0  0  0  0  0  0
   24.7464    9.1845    8.6779 H   0  0  0  0  0  0  0  0  0  0  0  0
   23.8606    9.4192    7.1330 H   0  0  0  0  0  0  0  0  0  0  0  0
   25.4708    8.6230    7.1330 H   0  0  0  0  0  0  0  0  0  0  0  0
   25.2948   11.1336    6.4197 H   0  0  0  0  0  0  0  0  0  0  0  0
   25.1349   11.4293    8.2046 H   0  0  0  0  0  0  0  0  0  0  0  0
   27.7305   12.7844    7.6102 H   0  0  0  0  0  0  0  0  0  0  0  0
   29.3618   12.5755   10.5725 H   0  0  0  0  0  0  0  0  0  0  0  0
   27.1856   13.5180   11.3364 H   0  0  0  0  0  0  0  0  0  0  0  0
   24.4797   14.2661    8.5648 H   0  0  0  0  0  0  0  0  0  0  0  0
   22.2773   15.1564    9.3122 H   0  0  0  0  0  0  0  0  0  0  0  0
   22.1488   16.7655   11.2359 H   0  0  0  0  0  0  0  0  0  0  0  0
   27.1190   16.0568   12.5579 H   0  0  0  0  0  0  0  0  0  0  0  0
   27.4132   17.3220   11.3851 H   0  0  0  0  0  0  0  0  0  0  0  0
   27.5323   18.2438   13.9046 H   0  0  0  0  0  0  0  0  0  0  0  0
   24.8923   17.8443   15.3996 H   0  0  0  0  0  0  0  0  0  0  0  0
   26.2239   16.6467   15.2667 H   0  0  0  0  0  0  0  0  0  0  0  0
   26.2910   17.9384   17.4088 H   0  0  0  0  0  0  0  0  0  0  0  0
   27.7630   18.1821   16.3856 H   0  0  0  0  0  0  0  0  0  0  0  0
   26.6243   21.4992   15.2531 H   0  0  0  0  0  0  0  0  0  0  0  0
   26.9818   15.9359    7.7569 H   0  0  0  0  0  0  0  0  0  0  0  0
   29.1607   14.9930    6.9968 H   0  0  0  0  0  0  0  0  0  0  0  0
   29.7187    8.9692    7.8326 H   0  0  0  0  0  0  0  0  0  0  0  0
  1  2  1  0
  2  3  1  0
  3  4  2  0
  4  5  1  0
  5  6  1  0
  6  7  2  0
  6  8  2  0
  6  9  1  0
  9 10  1  0
 10 11  2  0
 11 12  1  0
 12 13  2  0
 13 14  1  0
 14 15  2  0
 15 16  1  0
 16 17  2  0
 17 18  1  0
 18 19  2  0
 19 20  1  0
 20 21  1  0
 21 22  1  0
 22 23  1  0
 23 24  1  0
 24 25  1  0
 25 26  2  0
 25 27  1  0
 27 28  1  0
 28 29  2  0
 21 30  1  0
 30 31  2  0
 13 32  1  0
 32 33  2  0
  5 34  1  0
 34 35  2  0
 35  3  1  0
 33 10  1  0
 19 14  1  0
 28 22  1  0
 30 18  1  0
  1 36  1  0
  1 37  1  0
  1 38  1  0
  2 39  1  0
  2 40  1  0
  4 41  1  0
 11 42  1  0
 12 43  1  0
 15 44  1  0
 16 45  1  0
 17 46  1  0
 20 47  1  0
 20 48  1  0
 22 49  1  6
 23 50  1  0
 23 51  1  0
 24 52  1  0
 24 53  1  0
 27 54  1  0
 32 55  1  0
 33 56  1  0
 34 57  1  0
M  END
>  <meeko>  (436) 
{"is_sidechain": [true], "free_energy": -12.57, "intermolecular_energy": 0.0, "internal_energy": -12.57, "cluster_size": 17, "cluster_id": 1, "rank_in_cluster": 1}

>  <_RMSD_MCS_to_ref>  (436) 
0.997548773522154

$$$$
ligand
     RDKit          3D

 60 65  0  0  0  0  0  0  0  0999 V2000
   24.8710    9.6160    7.7820 C   0  0  0  0  0  0  0  0  0  0  0  0
   25.4240   10.9650    7.3490 C   0  0  0  0  0  0  0  0  0  0  0  0
   26.8920   10.9180    7.1130 C   0  0  0  0  0  0  0  0  0  0  0  0
   27.6320   11.5290    6.1180 C   0  0  0  0  0  0  0  0  0  0  0  0
   28.9180   11.1600    6.3880 N   0  0  0  0  0  0  0  0  0  0  0  0
   30.2870   11.6870    5.5560 S   0  0  0  0  0  6  0  0  0  0  0  0
   29.9490   11.4580    4.1610 O   0  0  0  0  0  0  0  0  0  0  0  0
   31.4170   11.0030    6.1600 O   0  0  0  0  0  0  0  0  0  0  0  0
   30.4640   13.2940    5.7490 O   0  0  0  0  0  0  0  0  0  0  0  0
   29.3810   14.0460    6.1060 C   0  0  0  0  0  0  0  0  0  0  0  0
   29.0160   14.1070    7.4320 C   0  0  0  0  0  0  0  0  0  0  0  0
   27.9900   14.8780    7.8570 N   0  0  0  0  0  0  0  0  0  0  0  0
   27.3270   15.6240    6.9210 C   0  0  0  0  0  0  0  0  0  0  0  0
   26.2520   16.4890    7.2000 C   0  0  0  0  0  0  0  0  0  0  0  0
   25.6920   16.6760    8.5610 C   0  0  0  0  0  0  0  0  0  0  0  0
   24.5140   15.9780    8.9460 C   0  0  0  0  0  0  0  0  0  0  0  0
   23.9510   16.1140   10.2190 C   0  0  0  0  0  0  0  0  0  0  0  0
   24.5880   16.9570   11.1030 C   0  0  0  0  0  0  0  0  0  0  0  0
   25.7490   17.6490   10.7740 C   0  0  0  0  0  0  0  0  0  0  0  0
   26.3120   17.5140    9.5140 C   0  0  0  0  0  0  0  0  0  0  0  0
   26.2130   18.4540   11.9410 C   0  0  0  0  0  0  0  0  0  0  0  0
   25.1580   18.2290   12.9220 N   0  0  0  0  0  0  0  0  0  0  0  0
   25.2660   18.6140   14.3240 C   0  0  2  0  0  0  0  0  0  0  0  0
   26.3240   19.6900   14.5530 C   0  0  0  0  0  0  0  0  0  0  0  0
   26.3130   20.1040   16.0160 C   0  0  0  0  0  0  0  0  0  0  0  0
   26.5150   18.9130   16.9220 C   0  0  0  0  0  0  0  0  0  0  0  0
   27.1530   18.9820   17.9680 O   0  0  0  0  0  0  0  0  0  0  0  0
   25.9290   17.7360   16.5280 N   0  0  0  0  0  0  0  0  0  0  0  0
   25.5690   17.4140   15.2390 C   0  0  0  0  0  0  0  0  0  0  0  0
   25.5170   16.2390   14.8860 O   0  0  0  0  0  0  0  0  0  0  0  0
   24.2350   17.2890   12.4870 C   0  0  0  0  0  0  0  0  0  0  0  0
   23.3000   16.8170   13.1070 O   0  0  0  0  0  0  0  0  0  0  0  0
   25.6320   17.2460    6.2460 N   0  0  0  0  0  0  0  0  0  0  0  0
   26.0640   17.1430    4.9800 C   0  0  0  0  0  0  0  0  0  0  0  0
   27.1010   16.3210    4.6070 C   0  0  0  0  0  0  0  0  0  0  0  0
   27.7370   15.5610    5.5690 C   0  0  0  0  0  0  0  0  0  0  0  0
   28.7570   14.7750    5.1670 N   0  0  0  0  0  0  0  0  0  0  0  0
   28.9360   10.3610    7.4850 C   0  0  0  0  0  0  0  0  0  0  0  0
   27.7160   10.1970    7.9570 N   0  0  0  0  0  0  0  0  0  0  0  0
   24.8497    9.5640    8.8806 H   0  0  0  0  0  0  0  0  0  0  0  0
   23.8507    9.4948    7.3893 H   0  0  0  0  0  0  0  0  0  0  0  0
   25.5127    8.8135    7.3893 H   0  0  0  0  0  0  0  0  0  0  0  0
   24.9246   11.2708    6.4178 H   0  0  0  0  0  0  0  0  0  0  0  0
   25.2338   11.6849    8.1587 H   0  0  0  0  0  0  0  0  0  0  0  0
   27.2684   12.1656    5.2980 H   0  0  0  0  0  0  0  0  0  0  0  0
   29.5758   13.5107    8.1676 H   0  0  0  0  0  0  0  0  0  0  0  0
   24.0300   15.3094    8.2188 H   0  0  0  0  0  0  0  0  0  0  0  0
   23.0376   15.5705   10.5026 H   0  0  0  0  0  0  0  0  0  0  0  0
   27.2347   18.0556    9.2586 H   0  0  0  0  0  0  0  0  0  0  0  0
   27.1836   18.0929   12.3118 H   0  0  0  0  0  0  0  0  0  0  0  0
   26.3712   19.5166   11.7045 H   0  0  0  0  0  0  0  0  0  0  0  0
   24.2794   19.0236   14.5865 H   0  0  0  0  0  0  0  0  0  0  0  0
   27.3155   19.2917   14.2915 H   0  0  0  0  0  0  0  0  0  0  0  0
   26.1032   20.5634   13.9218 H   0  0  0  0  0  0  0  0  0  0  0  0
   27.1222   20.8285   16.1900 H   0  0  0  0  0  0  0  0  0  0  0  0
   25.3349   20.5529   16.2436 H   0  0  0  0  0  0  0  0  0  0  0  0
   25.7429   17.0343   17.2587 H   0  0  0  0  0  0  0  0  0  0  0  0
   25.5657   17.7438    4.2049 H   0  0  0  0  0  0  0  0  0  0  0  0
   27.4202   16.2693    3.5556 H   0  0  0  0  0  0  0  0  0  0  0  0
   29.8418    9.9130    7.9195 H   0  0  0  0  0  0  0  0  0  0  0  0
  1  2  1  0
  2  3  1  0
  3  4  2  0
  4  5  1  0
  5  6  1  0
  6  7  2  0
  6  8  2  0
  6  9  1  0
  9 10  1  0
 10 11  2  0
 11 12  1  0
 12 13  2  0
 13 14  1  0
 14 15  1  0
 15 16  2  0
 16 17  1  0
 17 18  2  0
 18 19  1  0
 19 20  2  0
 19 21  1  0
 21 22  1  0
 22 23  1  0
 23 24  1  0
 24 25  1  0
 25 26  1  0
 26 27  2  0
 26 28  1  0
 28 29  1  0
 29 30  2  0
 22 31  1  0
 31 32  2  0
 14 33  2  0
 33 34  1  0
 34 35  2  0
 35 36  1  0
 36 37  2  0
  5 38  1  0
 38 39  2  0
 39  3  1  0
 37 10  1  0
 36 13  1  0
 20 15  1  0
 29 23  1  0
 31 18  1  0
  1 40  1  0
  1 41  1  0
  1 42  1  0
  2 43  1  0
  2 44  1  0
  4 45  1  0
 11 46  1  0
 16 47  1  0
 17 48  1  0
 20 49  1  0
 21 50  1  0
 21 51  1  0
 23 52  1  1
 24 53  1  0
 24 54  1  0
 25 55  1  0
 25 56  1  0
 28 57  1  0
 34 58  1  0
 35 59  1  0
 38 60  1  0
M  END
>  <meeko>  (437) 
{"is_sidechain": [true], "free_energy": -12.57, "intermolecular_energy": 0.0, "internal_energy": -12.57, "cluster_size": 20, "cluster_id": 1, "rank_in_cluster": 1}

>  <_RMSD_MCS_to_ref>  (437) 
1.7675991299529785

$$$$
ligand
     RDKit          3D

 59 63  0  0  0  0  0  0  0  0999 V2000
   24.8540    9.4020    7.6050 C   0  0  0  0  0  0  0  0  0  0  0  0
   25.5230   10.7550    7.4270 C   0  0  0  0  0  0  0  0  0  0  0  0
   25.0630   11.4520    6.1960 C   0  0  0  0  0  0  0  0  0  0  0  0
   25.4020   12.7080    5.7310 C   0  0  0  0  0  0  0  0  0  0  0  0
   24.7080   12.8310    4.5620 N   0  0  0  0  0  0  0  0  0  0  0  0
   24.5640   14.2260    3.6360 S   0  0  0  0  0  6  0  0  0  0  0  0
   25.1200   13.9080    2.3350 O   0  0  0  0  0  0  0  0  0  0  0  0
   23.1910   14.6600    3.8070 O   0  0  0  0  0  0  0  0  0  0  0  0
   25.6360   15.3830    4.4420 C   0  0  0  0  0  0  0  0  0  0  0  0
   26.6770   15.9780    3.7280 C   0  0  0  0  0  0  0  0  0  0  0  0
   27.5240   16.9000    4.3500 C   0  0  0  0  0  0  0  0  0  0  0  0
   27.2890   17.1920    5.7010 C   0  0  0  0  0  0  0  0  0  0  0  0
   27.9550   18.0510    6.5430 N   0  0  0  0  0  0  0  0  0  0  0  0
   27.3860   18.0300    7.7890 C   0  0  0  0  0  0  0  0  0  0  0  0
   26.3250   17.1350    7.7790 C   0  0  0  0  0  0  0  0  0  0  0  0
   25.4170   16.8040    8.8890 C   0  0  0  0  0  0  0  0  0  0  0  0
   24.4140   16.1280    8.6930 O   0  0  0  0  0  0  0  0  0  0  0  0
   25.8250   17.2980   10.1170 N   0  0  0  0  0  0  0  0  0  0  0  0
   25.1640   17.1870   11.3580 C   0  0  0  0  0  0  0  0  0  0  0  0
   24.1150   16.2660   11.4400 C   0  0  0  0  0  0  0  0  0  0  0  0
   23.4060   16.0970   12.6310 C   0  0  0  0  0  0  0  0  0  0  0  0
   23.7410   16.8470   13.7550 C   0  0  0  0  0  0  0  0  0  0  0  0
   24.7980   17.7660   13.7050 C   0  0  0  0  0  0  0  0  0  0  0  0
   25.1760   18.6190   14.9050 C   0  0  1  0  0  0  0  0  0  0  0  0
   26.3070   17.9450   15.6900 C   0  0  0  0  0  0  0  0  0  0  0  0
   26.6360   18.7640   16.9270 C   0  0  0  0  0  0  0  0  0  0  0  0
   27.0040   20.1790   16.5590 C   0  0  0  0  0  0  0  0  0  0  0  0
   27.7340   20.8740   17.2600 O   0  0  0  0  0  0  0  0  0  0  0  0
   26.4290   20.6820   15.4190 N   0  0  0  0  0  0  0  0  0  0  0  0
   25.5610   20.0560   14.5520 C   0  0  0  0  0  0  0  0  0  0  0  0
   25.1060   20.6790   13.5960 O   0  0  0  0  0  0  0  0  0  0  0  0
   25.4980   17.9300   12.4940 C   0  0  0  0  0  0  0  0  0  0  0  0
   26.2630   16.6060    6.4420 C   0  0  0  0  0  0  0  0  0  0  0  0
   25.4240   15.6720    5.7970 C   0  0  0  0  0  0  0  0  0  0  0  0
   23.9570   11.7160    4.3700 C   0  0  0  0  0  0  0  0  0  0  0  0
   24.1600   10.8490    5.3410 N   0  0  0  0  0  0  0  0  0  0  0  0
   24.7464    9.1845    8.6779 H   0  0  0  0  0  0  0  0  0  0  0  0
   23.8606    9.4192    7.1330 H   0  0  0  0  0  0  0  0  0  0  0  0
   25.4708    8.6230    7.1330 H   0  0  0  0  0  0  0  0  0  0  0  0
   25.2883   11.3836    8.2986 H   0  0  0  0  0  0  0  0  0  0  0  0
   26.6061   10.5865    7.3348 H   0  0  0  0  0  0  0  0  0  0  0  0
   26.0769   13.4414    6.1964 H   0  0  0  0  0  0  0  0  0  0  0  0
   26.8319   15.7201    2.6699 H   0  0  0  0  0  0  0  0  0  0  0  0
   28.3462   17.3797    3.7987 H   0  0  0  0  0  0  0  0  0  0  0  0
   28.7655   18.6276    6.2754 H   0  0  0  0  0  0  0  0  0  0  0  0
   27.7154   18.6241    8.6542 H   0  0  0  0  0  0  0  0  0  0  0  0
   26.7197   17.8083   10.1249 H   0  0  0  0  0  0  0  0  0  0  0  0
   23.8455   15.6682   10.5568 H   0  0  0  0  0  0  0  0  0  0  0  0
   22.5817   15.3703   12.6812 H   0  0  0  0  0  0  0  0  0  0  0  0
   23.1727   16.7176   14.6879 H   0  0  0  0  0  0  0  0  0  0  0  0
   24.2710   18.6936   15.5258 H   0  0  0  0  0  0  0  0  0  0  0  0
   25.9897   16.9365   15.9938 H   0  0  0  0  0  0  0  0  0  0  0  0
   27.2005   17.8768   15.0521 H   0  0  0  0  0  0  0  0  0  0  0  0
   25.7584   18.7819   17.5899 H   0  0  0  0  0  0  0  0  0  0  0  0
   27.4947   18.3005   17.4347 H   0  0  0  0  0  0  0  0  0  0  0  0
   26.6787   21.6526   15.1811 H   0  0  0  0  0  0  0  0  0  0  0  0
   26.3227   18.6560   12.4411 H   0  0  0  0  0  0  0  0  0  0  0  0
   24.6132   15.1767    6.3513 H   0  0  0  0  0  0  0  0  0  0  0  0
   23.2743   11.5586    3.5220 H   0  0  0  0  0  0  0  0  0  0  0  0
  1  2  1  0
  2  3  1  0
  3  4  2  0
  4  5  1  0
  5  6  1  0
  6  7  2  0
  6  8  2  0
  6  9  1  0
  9 10  2  0
 10 11  1  0
 11 12  2  0
 12 13  1  0
 13 14  1  0
 14 15  2  0
 15 16  1  0
 16 17  2  0
 16 18  1  0
 18 19  1  0
 19 20  2  0
 20 21  1  0
 21 22  2  0
 22 23  1  0
 23 24  1  0
 24 25  1  0
 25 26  1  0
 26 27  1  0
 27 28  2  0
 27 29  1  0
 29 30  1  0
 30 31  2  0
 23 32  2  0
 15 33  1  0
 33 34  2  0
  5 35  1  0
 35 36  2  0
 36  3  1  0
 34  9  1  0
 33 12  1  0
 32 19  1  0
 30 24  1  0
  1 37  1  0
  1 38  1  0
  1 39  1  0
  2 40  1  0
  2 41  1  0
  4 42  1  0
 10 43  1  0
 11 44  1  0
 13 45  1  0
 14 46  1  0
 18 47  1  0
 20 48  1  0
 21 49  1  0
 22 50  1  0
 24 51  1  1
 25 52  1  0
 25 53  1  0
 26 54  1  0
 26 55  1  0
 29 56  1  0
 32 57  1  0
 34 58  1  0
 35 59  1  0
M  END
>  <meeko>  (438) 
{"is_sidechain": [true], "free_energy": -12.56, "intermolecular_energy": 0.0, "internal_energy": -12.56, "cluster_size": 11, "cluster_id": 1, "rank_in_cluster": 1}

>  <_RMSD_MCS_to_ref>  (438) 
0.4570775371859781

$$$$
ligand
     RDKit          3D

 65 69  0  0  0  0  0  0  0  0999 V2000
   24.8540    9.4020    7.6050 C   0  0  0  0  0  0  0  0  0  0  0  0
   25.5230   10.7550    7.4270 C   0  0  0  0  0  0  0  0  0  0  0  0
   24.7000   11.6850    6.6060 C   0  0  0  0  0  0  0  0  0  0  0  0
   24.8580   12.0370    5.2790 C   0  0  0  0  0  0  0  0  0  0  0  0
   23.8190   12.8860    5.0320 N   0  0  0  0  0  0  0  0  0  0  0  0
   23.6150   13.8240    3.6510 S   0  0  0  0  0  6  0  0  0  0  0  0
   22.2120   14.1920    3.6410 O   0  0  0  0  0  0  0  0  0  0  0  0
   24.2370   13.0930    2.5660 O   0  0  0  0  0  0  0  0  0  0  0  0
   24.5860   15.2690    3.9860 C   0  0  0  0  0  0  0  0  0  0  0  0
   24.7990   16.2120    2.9830 C   0  0  0  0  0  0  0  0  0  0  0  0
   25.5500   17.3520    3.2690 C   0  0  0  0  0  0  0  0  0  0  0  0
   26.0900   17.5570    4.5490 C   0  0  0  0  0  0  0  0  0  0  0  0
   25.8510   16.6150    5.5690 C   0  0  0  0  0  0  0  0  0  0  0  0
   25.1260   15.4490    5.2630 C   0  0  0  0  0  0  0  0  0  0  0  0
   26.4120   16.8070    6.9760 C   0  0  2  0  0  0  0  0  0  0  0  0
   25.4040   16.4560    8.0820 C   0  0  0  0  0  0  0  0  0  0  0  0
   24.4150   15.7750    7.8210 O   0  0  0  0  0  0  0  0  0  0  0  0
   25.7450   16.9580    9.3290 N   0  0  0  0  0  0  0  0  0  0  0  0
   25.0310   16.8330   10.5370 C   0  0  0  0  0  0  0  0  0  0  0  0
   23.9540   15.9410   10.5500 C   0  0  0  0  0  0  0  0  0  0  0  0
   23.1910   15.7630   11.7040 C   0  0  0  0  0  0  0  0  0  0  0  0
   23.5020   16.4710   12.8640 C   0  0  0  0  0  0  0  0  0  0  0  0
   24.5840   17.3610   12.8810 C   0  0  0  0  0  0  0  0  0  0  0  0
   24.9430   18.1560   14.1260 C   0  0  1  0  0  0  0  0  0  0  0  0
   26.2260   17.6030   14.7570 C   0  0  0  0  0  0  0  0  0  0  0  0
   26.5410   18.3660   16.0330 C   0  0  0  0  0  0  0  0  0  0  0  0
   26.6650   19.8440   15.7640 C   0  0  0  0  0  0  0  0  0  0  0  0
   27.3450   20.5860   16.4670 O   0  0  0  0  0  0  0  0  0  0  0  0
   25.9250   20.3390   14.7210 N   0  0  0  0  0  0  0  0  0  0  0  0
   25.0790   19.6580   13.8750 C   0  0  0  0  0  0  0  0  0  0  0  0
   24.4500   20.2750   13.0190 O   0  0  0  0  0  0  0  0  0  0  0  0
   25.3360   17.5390   11.7040 C   0  0  0  0  0  0  0  0  0  0  0  0
   26.9510   18.2250    7.2280 C   0  0  0  0  0  0  0  0  0  0  0  0
   27.7710   18.7140    6.0430 C   0  0  0  0  0  0  0  0  0  0  0  0
   26.8880   18.8130    4.8020 C   0  0  0  0  0  0  0  0  0  0  0  0
   23.1100   13.0670    6.1760 C   0  0  0  0  0  0  0  0  0  0  0  0
   23.6160   12.3460    7.1540 N   0  0  0  0  0  0  0  0  0  0  0  0
   24.7464    9.1845    8.6779 H   0  0  0  0  0  0  0  0  0  0  0  0
   23.8606    9.4192    7.1330 H   0  0  0  0  0  0  0  0  0  0  0  0
   25.4708    8.6230    7.1330 H   0  0  0  0  0  0  0  0  0  0  0  0
   25.6830   11.2044    8.4182 H   0  0  0  0  0  0  0  0  0  0  0  0
   26.4762   10.5942    6.9021 H   0  0  0  0  0  0  0  0  0  0  0  0
   25.6422   11.7079    4.5814 H   0  0  0  0  0  0  0  0  0  0  0  0
   24.3799   16.0594    1.9775 H   0  0  0  0  0  0  0  0  0  0  0  0
   25.7216   18.1005    2.4814 H   0  0  0  0  0  0  0  0  0  0  0  0
   24.9833   14.6754    6.0319 H   0  0  0  0  0  0  0  0  0  0  0  0
   27.2517   16.0980    7.0235 H   0  0  0  0  0  0  0  0  0  0  0  0
   26.6277   17.4865    9.3779 H   0  0  0  0  0  0  0  0  0  0  0  0
   23.7060   15.3739    9.6407 H   0  0  0  0  0  0  0  0  0  0  0  0
   22.3426   15.0629   11.6988 H   0  0  0  0  0  0  0  0  0  0  0  0
   22.8949   16.3302   13.7704 H   0  0  0  0  0  0  0  0  0  0  0  0
   24.1011   18.0355   14.8236 H   0  0  0  0  0  0  0  0  0  0  0  0
   26.0873   16.5376   14.9931 H   0  0  0  0  0  0  0  0  0  0  0  0
   27.0593   17.7196   14.0484 H   0  0  0  0  0  0  0  0  0  0  0  0
   25.7325   18.1996   16.7601 H   0  0  0  0  0  0  0  0  0  0  0  0
   27.4995   18.0013   16.4310 H   0  0  0  0  0  0  0  0  0  0  0  0
   26.0135   21.3506   14.5483 H   0  0  0  0  0  0  0  0  0  0  0  0
   26.1785   18.2463   11.7030 H   0  0  0  0  0  0  0  0  0  0  0  0
   26.1043   18.9090    7.3866 H   0  0  0  0  0  0  0  0  0  0  0  0
   27.5984   18.2015    8.1170 H   0  0  0  0  0  0  0  0  0  0  0  0
   28.1882   19.7054    6.2731 H   0  0  0  0  0  0  0  0  0  0  0  0
   28.5865   18.0015    5.8498 H   0  0  0  0  0  0  0  0  0  0  0  0
   26.1894   19.6524    4.9340 H   0  0  0  0  0  0  0  0  0  0  0  0
   27.5497   18.9644    3.9364 H   0  0  0  0  0  0  0  0  0  0  0  0
   22.2339   13.7252    6.2720 H   0  0  0  0  0  0  0  0  0  0  0  0
  1  2  1  0
  2  3  1  0
  3  4  2  0
  4  5  1  0
  5  6  1  0
  6  7  2  0
  6  8  2  0
  6  9  1  0
  9 10  2  0
 10 11  1  0
 11 12  2  0
 12 13  1  0
 13 14  2  0
 13 15  1  0
 15 16  1  0
 16 17  2  0
 16 18  1  0
 18 19  1  0
 19 20  2  0
 20 21  1  0
 21 22  2  0
 22 23  1  0
 23 24  1  0
 24 25  1  0
 25 26  1  0
 26 27  1  0
 27 28  2  0
 27 29  1  0
 29 30  1  0
 30 31  2  0
 23 32  2  0
 15 33  1  0
 33 34  1  0
 34 35  1  0
  5 36  1  0
 36 37  2  0
 37  3  1  0
 14  9  1  0
 32 19  1  0
 35 12  1  0
 30 24  1  0
  1 38  1  0
  1 39  1  0
  1 40  1  0
  2 41  1  0
  2 42  1  0
  4 43  1  0
 10 44  1  0
 11 45  1  0
 14 46  1  0
 15 47  1  6
 18 48  1  0
 20 49  1  0
 21 50  1  0
 22 51  1  0
 24 52  1  1
 25 53  1  0
 25 54  1  0
 26 55  1  0
 26 56  1  0
 29 57  1  0
 32 58  1  0
 33 59  1  0
 33 60  1  0
 34 61  1  0
 34 62  1  0
 35 63  1  0
 35 64  1  0
 36 65  1  0
M  END
>  <meeko>  (439) 
{"is_sidechain": [true], "free_energy": -12.56, "intermolecular_energy": 0.0, "internal_energy": -12.56, "cluster_size": 15, "cluster_id": 1, "rank_in_cluster": 1}

>  <_RMSD_MCS_to_ref>  (439) 
0.7460170071787909

$$$$
ligand
     RDKit          3D

 57 61  0  0  0  0  0  0  0  0999 V2000
   24.8710    9.6160    7.7820 C   0  0  0  0  0  0  0  0  0  0  0  0
   25.4240   10.9650    7.3490 C   0  0  0  0  0  0  0  0  0  0  0  0
   26.9120   10.9700    7.2920 C   0  0  0  0  0  0  0  0  0  0  0  0
   27.7960   11.9530    7.6970 C   0  0  0  0  0  0  0  0  0  0  0  0
   29.0270   11.4310    7.4230 N   0  0  0  0  0  0  0  0  0  0  0  0
   30.4960   12.1050    7.8630 S   0  0  0  0  0  6  0  0  0  0  0  0
   30.4690   13.4710    7.3810 O   0  0  0  0  0  0  0  0  0  0  0  0
   31.5200   11.1410    7.5230 O   0  0  0  0  0  0  0  0  0  0  0  0
   30.5580   12.2410    9.6040 C   0  0  0  0  0  0  0  0  0  0  0  0
   31.6980   11.8620   10.2590 N   0  0  0  0  0  0  0  0  0  0  0  0
   31.6730   12.0960   11.5770 N   0  0  0  0  0  0  0  0  0  0  0  0
   30.4340   12.5500   11.7890 C   0  0  0  0  0  0  0  0  0  0  0  0
   29.6850   12.6480   10.5930 C   0  0  0  0  0  0  0  0  0  0  0  0
   28.3770   13.0580   10.3840 N   0  0  0  0  0  0  0  0  0  0  0  0
   28.0350   14.3320    9.9700 C   0  0  0  0  0  0  0  0  0  0  0  0
   28.7900   15.2680    9.7510 O   0  0  0  0  0  0  0  0  0  0  0  0
   26.5890   14.5260    9.7710 C   0  0  0  0  0  0  0  0  0  0  0  0
   25.9210   13.8430    8.7460 C   0  0  0  0  0  0  0  0  0  0  0  0
   24.5450   14.0530    8.5340 C   0  0  0  0  0  0  0  0  0  0  0  0
   23.8280   14.9400    9.3430 C   0  0  0  0  0  0  0  0  0  0  0  0
   24.5140   15.5770   10.3620 C   0  0  0  0  0  0  0  0  0  0  0  0
   25.8720   15.3770   10.5940 C   0  0  0  0  0  0  0  0  0  0  0  0
   26.3140   16.1690   11.7740 C   0  0  0  0  0  0  0  0  0  0  0  0
   25.0910   16.8480   12.1830 N   0  0  0  0  0  0  0  0  0  0  0  0
   25.1040   18.0500   13.0180 C   0  0  1  0  0  0  0  0  0  0  0  0
   25.0530   17.7060   14.5030 C   0  0  0  0  0  0  0  0  0  0  0  0
   25.1180   18.9850   15.3200 C   0  0  0  0  0  0  0  0  0  0  0  0
   26.3900   19.7380   15.0140 C   0  0  0  0  0  0  0  0  0  0  0  0
   27.0110   20.3490   15.8800 O   0  0  0  0  0  0  0  0  0  0  0  0
   26.8000   19.7210   13.7050 N   0  0  0  0  0  0  0  0  0  0  0  0
   26.3570   18.8870   12.7040 C   0  0  0  0  0  0  0  0  0  0  0  0
   26.9480   18.8300   11.6240 O   0  0  0  0  0  0  0  0  0  0  0  0
   24.0270   16.5590   11.3370 C   0  0  0  0  0  0  0  0  0  0  0  0
   22.9070   17.0300   11.3520 O   0  0  0  0  0  0  0  0  0  0  0  0
   28.8780   10.1990    6.8770 C   0  0  0  0  0  0  0  0  0  0  0  0
   27.6020    9.8820    6.7900 N   0  0  0  0  0  0  0  0  0  0  0  0
   24.8497    9.5640    8.8806 H   0  0  0  0  0  0  0  0  0  0  0  0
   23.8507    9.4948    7.3893 H   0  0  0  0  0  0  0  0  0  0  0  0
   25.5127    8.8135    7.3893 H   0  0  0  0  0  0  0  0  0  0  0  0
   25.0303   11.2054    6.3504 H   0  0  0  0  0  0  0  0  0  0  0  0
   25.1117   11.7129    8.0927 H   0  0  0  0  0  0  0  0  0  0  0  0
   27.5608   12.9324    8.1392 H   0  0  0  0  0  0  0  0  0  0  0  0
   32.5038   11.4346    9.7806 H   0  0  0  0  0  0  0  0  0  0  0  0
   30.0412   12.8172   12.7811 H   0  0  0  0  0  0  0  0  0  0  0  0
   27.6206   12.3778   10.5456 H   0  0  0  0  0  0  0  0  0  0  0  0
   26.4735   13.1404    8.1048 H   0  0  0  0  0  0  0  0  0  0  0  0
   24.0296   13.5147    7.7250 H   0  0  0  0  0  0  0  0  0  0  0  0
   22.7567   15.1248    9.1753 H   0  0  0  0  0  0  0  0  0  0  0  0
   26.6895   15.5132   12.5733 H   0  0  0  0  0  0  0  0  0  0  0  0
   27.1414   16.8586   11.5507 H   0  0  0  0  0  0  0  0  0  0  0  0
   24.2033   18.6371   12.7856 H   0  0  0  0  0  0  0  0  0  0  0  0
   24.1149   17.1761   14.7249 H   0  0  0  0  0  0  0  0  0  0  0  0
   25.9068   17.0619   14.7604 H   0  0  0  0  0  0  0  0  0  0  0  0
   24.2531   19.6180   15.0725 H   0  0  0  0  0  0  0  0  0  0  0  0
   25.1029   18.7277   16.3894 H   0  0  0  0  0  0  0  0  0  0  0  0
   27.5197   20.4093   13.4420 H   0  0  0  0  0  0  0  0  0  0  0  0
   29.7073    9.5536    6.5518 H   0  0  0  0  0  0  0  0  0  0  0  0
  1  2  1  0
  2  3  1  0
  3  4  2  0
  4  5  1  0
  5  6  1  0
  6  7  2  0
  6  8  2  0
  6  9  1  0
  9 10  1  0
 10 11  1  0
 11 12  2  0
 12 13  1  0
 13 14  1  0
 14 15  1  0
 15 16  2  0
 15 17  1  0
 17 18  2  0
 18 19  1  0
 19 20  2  0
 20 21  1  0
 21 22  2  0
 22 23  1  0
 23 24  1  0
 24 25  1  0
 25 26  1  0
 26 27  1  0
 27 28  1  0
 28 29  2  0
 28 30  1  0
 30 31  1  0
 31 32  2  0
 24 33  1  0
 33 34  2  0
  5 35  1  0
 35 36  2  0
 36  3  1  0
 13  9  2  0
 22 17  1  0
 31 25  1  0
 33 21  1  0
  1 37  1  0
  1 38  1  0
  1 39  1  0
  2 40  1  0
  2 41  1  0
  4 42  1  0
 10 43  1  0
 12 44  1  0
 14 45  1  0
 18 46  1  0
 19 47  1  0
 20 48  1  0
 23 49  1  0
 23 50  1  0
 25 51  1  6
 26 52  1  0
 26 53  1  0
 27 54  1  0
 27 55  1  0
 30 56  1  0
 35 57  1  0
M  END
>  <meeko>  (440) 
{"is_sidechain": [true], "free_energy": -12.56, "intermolecular_energy": 0.0, "internal_energy": -12.56, "cluster_size": 17, "cluster_id": 1, "rank_in_cluster": 1}

>  <_RMSD_MCS_to_ref>  (440) 
1.8598341323892298

$$$$
ligand
     RDKit          3D

 61 66  0  0  0  0  0  0  0  0999 V2000
   24.8710    9.6160    7.7820 C   0  0  0  0  0  0  0  0  0  0  0  0
   25.4240   10.9650    7.3490 C   0  0  0  0  0  0  0  0  0  0  0  0
   26.8060   10.8590    6.8100 C   0  0  0  0  0  0  0  0  0  0  0  0
   27.5470   11.8020    6.1260 C   0  0  0  0  0  0  0  0  0  0  0  0
   28.7340   11.1740    5.8750 N   0  0  0  0  0  0  0  0  0  0  0  0
   30.0390   11.8420    5.0430 S   0  0  0  0  0  6  0  0  0  0  0  0
   29.5700   12.1130    3.6940 O   0  0  0  0  0  0  0  0  0  0  0  0
   31.1100   10.8850    5.2620 O   0  0  0  0  0  0  0  0  0  0  0  0
   30.4870   13.2310    5.7600 O   0  0  0  0  0  0  0  0  0  0  0  0
   29.9010   13.5940    6.9480 C   0  0  0  0  0  0  0  0  0  0  0  0
   30.5940   13.3410    8.0740 N   0  0  0  0  0  0  0  0  0  0  0  0
   30.0360   13.7330    9.2350 C   0  0  0  0  0  0  0  0  0  0  0  0
   28.8210   14.3910    9.3140 C   0  0  0  0  0  0  0  0  0  0  0  0
   28.1130   14.6840    8.1280 C   0  0  0  0  0  0  0  0  0  0  0  0
   26.8700   15.3600    8.0770 C   0  0  0  0  0  0  0  0  0  0  0  0
   26.1760   15.8820    9.2680 C   0  0  0  0  0  0  0  0  0  0  0  0
   24.8230   15.5410    9.5270 C   0  0  0  0  0  0  0  0  0  0  0  0
   24.1530   16.0260   10.6530 C   0  0  0  0  0  0  0  0  0  0  0  0
   24.8620   16.8460   11.5090 C   0  0  0  0  0  0  0  0  0  0  0  0
   26.1950   17.1840   11.2940 C   0  0  0  0  0  0  0  0  0  0  0  0
   26.8660   16.7080   10.1790 C   0  0  0  0  0  0  0  0  0  0  0  0
   26.6890   18.0570   12.4000 C   0  0  0  0  0  0  0  0  0  0  0  0
   25.5000   18.2130   13.2310 N   0  0  0  0  0  0  0  0  0  0  0  0
   25.5060   18.8220   14.5580 C   0  0  1  0  0  0  0  0  0  0  0  0
   26.5420   18.1490   15.4610 C   0  0  0  0  0  0  0  0  0  0  0  0
   26.4400   18.7120   16.8690 C   0  0  0  0  0  0  0  0  0  0  0  0
   26.5980   20.2130   16.8700 C   0  0  0  0  0  0  0  0  0  0  0  0
   27.1080   20.8200   17.8060 O   0  0  0  0  0  0  0  0  0  0  0  0
   26.1080   20.8820   15.7780 N   0  0  0  0  0  0  0  0  0  0  0  0
   25.7290   20.3430   14.5690 C   0  0  0  0  0  0  0  0  0  0  0  0
   25.5580   21.0760   13.5970 O   0  0  0  0  0  0  0  0  0  0  0  0
   24.4270   17.4730   12.7600 C   0  0  0  0  0  0  0  0  0  0  0  0
   23.3360   17.3260   13.2760 O   0  0  0  0  0  0  0  0  0  0  0  0
   26.1960   15.5920    6.9200 N   0  0  0  0  0  0  0  0  0  0  0  0
   26.7580   15.1780    5.7710 C   0  0  0  0  0  0  0  0  0  0  0  0
   27.9730   14.5270    5.7070 C   0  0  0  0  0  0  0  0  0  0  0  0
   28.6690   14.2670    6.9020 C   0  0  0  0  0  0  0  0  0  0  0  0
   28.6930    9.9160    6.3840 C   0  0  0  0  0  0  0  0  0  0  0  0
   27.5320    9.6920    6.9650 N   0  0  0  0  0  0  0  0  0  0  0  0
   24.8497    9.5640    8.8806 H   0  0  0  0  0  0  0  0  0  0  0  0
   23.8507    9.4948    7.3893 H   0  0  0  0  0  0  0  0  0  0  0  0
   25.5127    8.8135    7.3893 H   0  0  0  0  0  0  0  0  0  0  0  0
   24.7704   11.3818    6.5685 H   0  0  0  0  0  0  0  0  0  0  0  0
   25.4561   11.6167    8.2346 H   0  0  0  0  0  0  0  0  0  0  0  0
   27.2500   12.8238    5.8473 H   0  0  0  0  0  0  0  0  0  0  0  0
   30.5743   13.5190   10.1701 H   0  0  0  0  0  0  0  0  0  0  0  0
   28.4106   14.6831   10.2919 H   0  0  0  0  0  0  0  0  0  0  0  0
   24.2905   14.8809    8.8265 H   0  0  0  0  0  0  0  0  0  0  0  0
   23.1027   15.7652   10.8500 H   0  0  0  0  0  0  0  0  0  0  0  0
   27.9204   16.9704   10.0072 H   0  0  0  0  0  0  0  0  0  0  0  0
   27.5031   17.5707   12.9575 H   0  0  0  0  0  0  0  0  0  0  0  0
   27.1101   19.0117   12.0517 H   0  0  0  0  0  0  0  0  0  0  0  0
   24.4896   18.6574   14.9452 H   0  0  0  0  0  0  0  0  0  0  0  0
   26.3553   17.0653   15.4865 H   0  0  0  0  0  0  0  0  0  0  0  0
   27.5498   18.3420   15.0645 H   0  0  0  0  0  0  0  0  0  0  0  0
   25.4560   18.4546   17.2878 H   0  0  0  0  0  0  0  0  0  0  0  0
   27.2466   18.2767   17.4772 H   0  0  0  0  0  0  0  0  0  0  0  0
   26.0127   21.9032   15.8728 H   0  0  0  0  0  0  0  0  0  0  0  0
   26.2200   15.3686    4.8307 H   0  0  0  0  0  0  0  0  0  0  0  0
   28.3905   14.2164    4.7379 H   0  0  0  0  0  0  0  0  0  0  0  0
   29.5137    9.1864    6.3202 H   0  0  0  0  0  0  0  0  0  0  0  0
  1  2  1  0
  2  3  1  0
  3  4  2  0
  4  5  1  0
  5  6  1  0
  6  7  2  0
  6  8  2  0
  6  9  1  0
  9 10  1  0
 10 11  2  0
 11 12  1  0
 12 13  2  0
 13 14  1  0
 14 15  2  0
 15 16  1  0
 16 17  2  0
 17 18  1  0
 18 19  2  0
 19 20  1  0
 20 21  2  0
 20 22  1  0
 22 23  1  0
 23 24  1  0
 24 25  1  0
 25 26  1  0
 26 27  1  0
 27 28  2  0
 27 29  1  0
 29 30  1  0
 30 31  2  0
 23 32  1  0
 32 33  2  0
 15 34  1  0
 34 35  2  0
 35 36  1  0
 36 37  2  0
  5 38  1  0
 38 39  2  0
 39  3  1  0
 37 10  1  0
 37 14  1  0
 21 16  1  0
 30 24  1  0
 32 19  1  0
  1 40  1  0
  1 41  1  0
  1 42  1  0
  2 43  1  0
  2 44  1  0
  4 45  1  0
 12 46  1  0
 13 47  1  0
 17 48  1  0
 18 49  1  0
 21 50  1  0
 22 51  1  0
 22 52  1  0
 24 53  1  1
 25 54  1  0
 25 55  1  0
 26 56  1  0
 26 57  1  0
 29 58  1  0
 35 59  1  0
 36 60  1  0
 38 61  1  0
M  END
>  <meeko>  (441) 
{"is_sidechain": [true], "free_energy": -12.56, "intermolecular_energy": 0.0, "internal_energy": -12.56, "cluster_size": 19, "cluster_id": 1, "rank_in_cluster": 1}

>  <_RMSD_MCS_to_ref>  (441) 
1.0274983416557244

$$$$
ligand
     RDKit          3D

 59 64  0  0  0  0  0  0  0  0999 V2000
   24.8540    9.4020    7.6050 C   0  0  0  0  0  0  0  0  0  0  0  0
   25.5230   10.7550    7.4270 C   0  0  0  0  0  0  0  0  0  0  0  0
   25.0250   11.4750    6.2230 C   0  0  0  0  0  0  0  0  0  0  0  0
   25.2900   12.7660    5.8110 C   0  0  0  0  0  0  0  0  0  0  0  0
   24.5690   12.9040    4.6600 N   0  0  0  0  0  0  0  0  0  0  0  0
   24.6450   14.2100    3.6120 S   0  0  0  0  0  6  0  0  0  0  0  0
   23.5770   15.1010    4.0200 O   0  0  0  0  0  0  0  0  0  0  0  0
   24.7670   13.6700    2.2740 O   0  0  0  0  0  0  0  0  0  0  0  0
   26.1070   15.0780    3.8960 C   0  0  0  0  0  0  0  0  0  0  0  0
   27.0990   15.3160    2.9660 C   0  0  0  0  0  0  0  0  0  0  0  0
   28.0670   16.0680    3.5750 N   0  0  0  0  0  0  0  0  0  0  0  0
   27.7140   16.3290    4.8800 C   0  0  0  0  0  0  0  0  0  0  0  0
   28.3860   17.0690    5.8570 C   0  0  0  0  0  0  0  0  0  0  0  0
   27.7930   17.1690    7.1210 C   0  0  0  0  0  0  0  0  0  0  0  0
   26.5740   16.5460    7.4230 C   0  0  0  0  0  0  0  0  0  0  0  0
   25.9680   16.6640    8.7640 C   0  0  0  0  0  0  0  0  0  0  0  0
   24.8040   15.9170    9.1000 C   0  0  0  0  0  0  0  0  0  0  0  0
   24.2070   16.0020   10.3640 C   0  0  0  0  0  0  0  0  0  0  0  0
   24.7930   16.8470   11.2800 C   0  0  0  0  0  0  0  0  0  0  0  0
   25.9230   17.5810   10.9740 C   0  0  0  0  0  0  0  0  0  0  0  0
   26.5330   17.5120    9.7350 C   0  0  0  0  0  0  0  0  0  0  0  0
   26.2780   18.3560   12.1600 C   0  0  0  0  0  0  0  0  0  0  0  0
   27.2380   19.0970   12.2340 O   0  0  0  0  0  0  0  0  0  0  0  0
   25.3290   18.0810   13.1090 N   0  0  0  0  0  0  0  0  0  0  0  0
   25.4250   18.5600   14.4800 C   0  0  1  0  0  0  0  0  0  0  0  0
   26.5650   17.9410   15.2820 C   0  0  0  0  0  0  0  0  0  0  0  0
   26.5350   18.4910   16.7010 C   0  0  0  0  0  0  0  0  0  0  0  0
   26.6090   20.0010   16.7060 C   0  0  0  0  0  0  0  0  0  0  0  0
   27.0830   20.6300   17.6460 O   0  0  0  0  0  0  0  0  0  0  0  0
   26.0620   20.6470   15.6240 N   0  0  0  0  0  0  0  0  0  0  0  0
   25.5520   20.0870   14.4740 C   0  0  0  0  0  0  0  0  0  0  0  0
   25.1770   20.8020   13.5470 O   0  0  0  0  0  0  0  0  0  0  0  0
   24.4310   17.1510   12.6630 C   0  0  0  0  0  0  0  0  0  0  0  0
   23.5060   16.6300   13.2570 O   0  0  0  0  0  0  0  0  0  0  0  0
   25.9350   15.7990    6.4140 C   0  0  0  0  0  0  0  0  0  0  0  0
   26.4920   15.6970    5.1200 C   0  0  0  0  0  0  0  0  0  0  0  0
   23.9180   11.7420    4.3980 C   0  0  0  0  0  0  0  0  0  0  0  0
   24.1810   10.8460    5.3280 N   0  0  0  0  0  0  0  0  0  0  0  0
   24.7464    9.1845    8.6779 H   0  0  0  0  0  0  0  0  0  0  0  0
   23.8606    9.4192    7.1330 H   0  0  0  0  0  0  0  0  0  0  0  0
   25.4708    8.6230    7.1330 H   0  0  0  0  0  0  0  0  0  0  0  0
   25.3206   11.3699    8.3163 H   0  0  0  0  0  0  0  0  0  0  0  0
   26.6016   10.5835    7.2956 H   0  0  0  0  0  0  0  0  0  0  0  0
   25.9344   13.5123    6.2985 H   0  0  0  0  0  0  0  0  0  0  0  0
   27.1096   14.9647    1.9237 H   0  0  0  0  0  0  0  0  0  0  0  0
   28.9339   16.3917    3.1226 H   0  0  0  0  0  0  0  0  0  0  0  0
   29.3481   17.5562    5.6400 H   0  0  0  0  0  0  0  0  0  0  0  0
   28.2995   17.7550    7.9021 H   0  0  0  0  0  0  0  0  0  0  0  0
   24.3599   15.2528    8.3440 H   0  0  0  0  0  0  0  0  0  0  0  0
   23.3086   15.4188   10.6144 H   0  0  0  0  0  0  0  0  0  0  0  0
   27.4342   18.1030    9.5145 H   0  0  0  0  0  0  0  0  0  0  0  0
   24.5016   18.2440   14.9874 H   0  0  0  0  0  0  0  0  0  0  0  0
   26.4450   16.8479   15.3085 H   0  0  0  0  0  0  0  0  0  0  0  0
   27.5268   18.1896   14.8096 H   0  0  0  0  0  0  0  0  0  0  0  0
   25.6000   18.1764   17.1877 H   0  0  0  0  0  0  0  0  0  0  0  0
   27.4073   18.0986   17.2442 H   0  0  0  0  0  0  0  0  0  0  0  0
   26.0294   21.6750   15.6797 H   0  0  0  0  0  0  0  0  0  0  0  0
   24.9873   15.2871    6.6374 H   0  0  0  0  0  0  0  0  0  0  0  0
   23.2628   11.5720    3.5309 H   0  0  0  0  0  0  0  0  0  0  0  0
  1  2  1  0
  2  3  1  0
  3  4  2  0
  4  5  1  0
  5  6  1  0
  6  7  2  0
  6  8  2  0
  6  9  1  0
  9 10  2  0
 10 11  1  0
 11 12  1  0
 12 13  2  0
 13 14  1  0
 14 15  2  0
 15 16  1  0
 16 17  2  0
 17 18  1  0
 18 19  2  0
 19 20  1  0
 20 21  2  0
 20 22  1  0
 22 23  2  0
 22 24  1  0
 24 25  1  0
 25 26  1  0
 26 27  1  0
 27 28  1  0
 28 29  2  0
 28 30  1  0
 30 31  1  0
 31 32  2  0
 24 33  1  0
 33 34  2  0
 15 35  1  0
 35 36  2  0
  5 37  1  0
 37 38  2  0
 38  3  1  0
 36  9  1  0
 36 12  1  0
 21 16  1  0
 31 25  1  0
 33 19  1  0
  1 39  1  0
  1 40  1  0
  1 41  1  0
  2 42  1  0
  2 43  1  0
  4 44  1  0
 10 45  1  0
 11 46  1  0
 13 47  1  0
 14 48  1  0
 17 49  1  0
 18 50  1  0
 21 51  1  0
 25 52  1  1
 26 53  1  0
 26 54  1  0
 27 55  1  0
 27 56  1  0
 30 57  1  0
 35 58  1  0
 37 59  1  0
M  END
>  <meeko>  (442) 
{"is_sidechain": [true], "free_energy": -12.54, "intermolecular_energy": 0.0, "internal_energy": -12.54, "cluster_size": 3, "cluster_id": 2, "rank_in_cluster": 1}

>  <_RMSD_MCS_to_ref>  (442) 
0.5630966958603896

$$$$
ligand
     RDKit          3D

 55 59  0  0  0  0  0  0  0  0999 V2000
   24.8540    9.4020    7.6050 C   0  0  0  0  0  0  0  0  0  0  0  0
   25.5230   10.7550    7.4270 C   0  0  0  0  0  0  0  0  0  0  0  0
   26.9970   10.6830    7.6200 C   0  0  0  0  0  0  0  0  0  0  0  0
   27.8980   11.7120    7.8140 C   0  0  0  0  0  0  0  0  0  0  0  0
   29.1100   11.0870    7.8980 N   0  0  0  0  0  0  0  0  0  0  0  0
   30.5730   11.8320    8.2990 S   0  0  0  0  0  6  0  0  0  0  0  0
   30.7870   12.7710    7.2120 O   0  0  0  0  0  0  0  0  0  0  0  0
   31.5040   10.7480    8.5490 O   0  0  0  0  0  0  0  0  0  0  0  0
   30.3320   12.6890    9.6690 O   0  0  0  0  0  0  0  0  0  0  0  0
   29.3590   13.6090    9.8070 C   0  0  0  0  0  0  0  0  0  0  0  0
   29.6010   14.9490    9.6360 C   0  0  0  0  0  0  0  0  0  0  0  0
   28.4070   15.6080    9.7760 N   0  0  0  0  0  0  0  0  0  0  0  0
   27.3960   14.7030   10.0190 C   0  0  0  0  0  0  0  0  0  0  0  0
   25.9890   15.0860   10.0840 C   0  0  0  0  0  0  0  0  0  0  0  0
   25.0450   14.5760    9.1780 C   0  0  0  0  0  0  0  0  0  0  0  0
   23.6800   14.9220    9.2680 C   0  0  0  0  0  0  0  0  0  0  0  0
   23.2280   15.7800   10.2710 C   0  0  0  0  0  0  0  0  0  0  0  0
   24.1690   16.2760   11.1510 C   0  0  0  0  0  0  0  0  0  0  0  0
   25.5240   15.9490   11.0690 C   0  0  0  0  0  0  0  0  0  0  0  0
   26.2700   16.6330   12.1680 C   0  0  0  0  0  0  0  0  0  0  0  0
   25.2260   17.3650   12.8620 N   0  0  0  0  0  0  0  0  0  0  0  0
   25.4690   18.1210   14.0890 C   0  0  1  0  0  0  0  0  0  0  0  0
   26.6720   17.5540   14.8410 C   0  0  0  0  0  0  0  0  0  0  0  0
   26.8970   18.3300   16.1260 C   0  0  0  0  0  0  0  0  0  0  0  0
   27.0830   19.8000   15.8440 C   0  0  0  0  0  0  0  0  0  0  0  0
   27.8180   20.5090   16.5270 O   0  0  0  0  0  0  0  0  0  0  0  0
   26.3430   20.3210   14.8140 N   0  0  0  0  0  0  0  0  0  0  0  0
   25.6500   19.6320   13.8450 C   0  0  0  0  0  0  0  0  0  0  0  0
   25.1720   20.2340   12.8840 O   0  0  0  0  0  0  0  0  0  0  0  0
   23.9770   17.1620   12.3080 C   0  0  0  0  0  0  0  0  0  0  0  0
   22.9060   17.5890   12.6920 O   0  0  0  0  0  0  0  0  0  0  0  0
   27.9910   13.4550   10.1170 C   0  0  0  0  0  0  0  0  0  0  0  0
   28.9280    9.7470    7.7710 C   0  0  0  0  0  0  0  0  0  0  0  0
   27.6480    9.4630    7.6240 N   0  0  0  0  0  0  0  0  0  0  0  0
   24.7464    9.1845    8.6779 H   0  0  0  0  0  0  0  0  0  0  0  0
   23.8606    9.4192    7.1330 H   0  0  0  0  0  0  0  0  0  0  0  0
   25.4708    8.6230    7.1330 H   0  0  0  0  0  0  0  0  0  0  0  0
   25.3163   11.1214    6.4106 H   0  0  0  0  0  0  0  0  0  0  0  0
   25.1155   11.4360    8.1887 H   0  0  0  0  0  0  0  0  0  0  0  0
   27.6875   12.7894    7.8847 H   0  0  0  0  0  0  0  0  0  0  0  0
   30.5767   15.4109    9.4248 H   0  0  0  0  0  0  0  0  0  0  0  0
   28.2836   16.6284    9.7095 H   0  0  0  0  0  0  0  0  0  0  0  0
   25.3764   13.8929    8.3820 H   0  0  0  0  0  0  0  0  0  0  0  0
   22.9650   14.5111    8.5400 H   0  0  0  0  0  0  0  0  0  0  0  0
   22.1652   16.0503   10.3571 H   0  0  0  0  0  0  0  0  0  0  0  0
   26.7508   15.9019   12.8346 H   0  0  0  0  0  0  0  0  0  0  0  0
   27.0843   17.2772   11.8048 H   0  0  0  0  0  0  0  0  0  0  0  0
   24.5661   18.0085   14.7071 H   0  0  0  0  0  0  0  0  0  0  0  0
   26.4852   16.4972   15.0822 H   0  0  0  0  0  0  0  0  0  0  0  0
   27.5665   17.6407   14.2068 H   0  0  0  0  0  0  0  0  0  0  0  0
   26.0253   18.1973   16.7837 H   0  0  0  0  0  0  0  0  0  0  0  0
   27.8074   17.9482   16.6112 H   0  0  0  0  0  0  0  0  0  0  0  0
   26.3008   21.3487   14.7590 H   0  0  0  0  0  0  0  0  0  0  0  0
   27.4880   12.5149   10.3874 H   0  0  0  0  0  0  0  0  0  0  0  0
   29.7365    9.0013    7.7883 H   0  0  0  0  0  0  0  0  0  0  0  0
  1  2  1  0
  2  3  1  0
  3  4  2  0
  4  5  1  0
  5  6  1  0
  6  7  2  0
  6  8  2  0
  6  9  1  0
  9 10  1  0
 10 11  2  0
 11 12  1  0
 12 13  1  0
 13 14  1  0
 14 15  2  0
 15 16  1  0
 16 17  2  0
 17 18  1  0
 18 19  2  0
 19 20  1  0
 20 21  1  0
 21 22  1  0
 22 23  1  0
 23 24  1  0
 24 25  1  0
 25 26  2  0
 25 27  1  0
 27 28  1  0
 28 29  2  0
 21 30  1  0
 30 31  2  0
 13 32  2  0
  5 33  1  0
 33 34  2  0
 34  3  1  0
 32 10  1  0
 19 14  1  0
 28 22  1  0
 30 18  1  0
  1 35  1  0
  1 36  1  0
  1 37  1  0
  2 38  1  0
  2 39  1  0
  4 40  1  0
 11 41  1  0
 12 42  1  0
 15 43  1  0
 16 44  1  0
 17 45  1  0
 20 46  1  0
 20 47  1  0
 22 48  1  1
 23 49  1  0
 23 50  1  0
 24 51  1  0
 24 52  1  0
 27 53  1  0
 32 54  1  0
 33 55  1  0
M  END
>  <meeko>  (443) 
{"is_sidechain": [true], "free_energy": -12.54, "intermolecular_energy": 0.0, "internal_energy": -12.54, "cluster_size": 16, "cluster_id": 1, "rank_in_cluster": 1}

>  <_RMSD_MCS_to_ref>  (443) 
0.8517343743470988

$$$$
ligand
     RDKit          3D

 57 61  0  0  0  0  0  0  0  0999 V2000
   24.8710    9.6170    7.7820 C   0  0  0  0  0  0  0  0  0  0  0  0
   25.4240   10.9640    7.3490 C   0  0  0  0  0  0  0  0  0  0  0  0
   26.5380   11.4250    8.2220 C   0  0  0  0  0  0  0  0  0  0  0  0
   27.4120   12.4770    8.0340 C   0  0  0  0  0  0  0  0  0  0  0  0
   28.2260   12.4380    9.1310 N   0  0  0  0  0  0  0  0  0  0  0  0
   29.3100   13.6470    9.5850 S   0  0  0  0  0  6  0  0  0  0  0  0
   29.5760   13.4190   10.9960 O   0  0  0  0  0  0  0  0  0  0  0  0
   30.3720   13.5780    8.6000 O   0  0  0  0  0  0  0  0  0  0  0  0
   28.5490   15.0800    9.4150 O   0  0  0  0  0  0  0  0  0  0  0  0
   27.8030   15.3670    8.2920 C   0  0  0  0  0  0  0  0  0  0  0  0
   28.3780   15.0940    7.0770 N   0  0  0  0  0  0  0  0  0  0  0  0
   27.7660   15.3020    5.8660 C   0  0  0  0  0  0  0  0  0  0  0  0
   28.3040   15.0490    4.7970 O   0  0  0  0  0  0  0  0  0  0  0  0
   26.3950   15.8620    5.9250 C   0  0  0  0  0  0  0  0  0  0  0  0
   25.8360   16.1180    7.1160 C   0  0  0  0  0  0  0  0  0  0  0  0
   26.5450   15.8550    8.3610 C   0  0  0  0  0  0  0  0  0  0  0  0
   25.9410   16.1460    9.6770 C   0  0  0  0  0  0  0  0  0  0  0  0
   24.6760   15.6150   10.0160 C   0  0  0  0  0  0  0  0  0  0  0  0
   24.0910   15.8670   11.2650 C   0  0  0  0  0  0  0  0  0  0  0  0
   24.7900   16.6510   12.1640 C   0  0  0  0  0  0  0  0  0  0  0  0
   26.0330   17.1750   11.8190 C   0  0  0  0  0  0  0  0  0  0  0  0
   26.6290   16.9540   10.5920 C   0  0  0  0  0  0  0  0  0  0  0  0
   26.5310   17.9530   12.9570 C   0  0  0  0  0  0  0  0  0  0  0  0
   27.5590   18.6010   12.9530 O   0  0  0  0  0  0  0  0  0  0  0  0
   25.6090   17.8000   13.9820 N   0  0  0  0  0  0  0  0  0  0  0  0
   25.6070   18.5920   15.2080 C   0  0  1  0  0  0  0  0  0  0  0  0
   26.5570   18.0650   16.2840 C   0  0  0  0  0  0  0  0  0  0  0  0
   26.4290   18.9220   17.5330 C   0  0  0  0  0  0  0  0  0  0  0  0
   26.6970   20.3780   17.2290 C   0  0  0  0  0  0  0  0  0  0  0  0
   27.0600   21.1700   18.0940 O   0  0  0  0  0  0  0  0  0  0  0  0
   26.4350   20.7990   15.9500 N   0  0  0  0  0  0  0  0  0  0  0  0
   25.8940   20.0720   14.9140 C   0  0  0  0  0  0  0  0  0  0  0  0
   25.5760   20.6280   13.8640 O   0  0  0  0  0  0  0  0  0  0  0  0
   24.4160   17.0920   13.5390 C   0  0  0  0  0  0  0  0  0  0  0  0
   27.8120   11.4430    9.9560 C   0  0  0  0  0  0  0  0  0  0  0  0
   26.7960   10.7970    9.4260 N   0  0  0  0  0  0  0  0  0  0  0  0
   24.8498    9.5653    8.8806 H   0  0  0  0  0  0  0  0  0  0  0  0
   23.8505    9.4962    7.3895 H   0  0  0  0  0  0  0  0  0  0  0  0
   25.5122    8.8140    7.3895 H   0  0  0  0  0  0  0  0  0  0  0  0
   25.7954   10.8786    6.3171 H   0  0  0  0  0  0  0  0  0  0  0  0
   24.6109   11.7011    7.4239 H   0  0  0  0  0  0  0  0  0  0  0  0
   27.4455   13.1852    7.1929 H   0  0  0  0  0  0  0  0  0  0  0  0
   29.3326   14.7072    7.0730 H   0  0  0  0  0  0  0  0  0  0  0  0
   25.8399   16.0662    4.9975 H   0  0  0  0  0  0  0  0  0  0  0  0
   24.8192   16.5360    7.1541 H   0  0  0  0  0  0  0  0  0  0  0  0
   24.1397   14.9916    9.2854 H   0  0  0  0  0  0  0  0  0  0  0  0
   23.1048   15.4531   11.5221 H   0  0  0  0  0  0  0  0  0  0  0  0
   27.6055   17.3952   10.3433 H   0  0  0  0  0  0  0  0  0  0  0  0
   24.5912   18.4963   15.6192 H   0  0  0  0  0  0  0  0  0  0  0  0
   26.2972   17.0236   16.5250 H   0  0  0  0  0  0  0  0  0  0  0  0
   27.5919   18.1071   15.9136 H   0  0  0  0  0  0  0  0  0  0  0  0
   25.4096   18.8213   17.9339 H   0  0  0  0  0  0  0  0  0  0  0  0
   27.1716   18.5781   18.2680 H   0  0  0  0  0  0  0  0  0  0  0  0
   26.6721   21.7789   15.7391 H   0  0  0  0  0  0  0  0  0  0  0  0
   24.2021   16.2299   14.1879 H   0  0  0  0  0  0  0  0  0  0  0  0
   23.5056   17.7088   13.5678 H   0  0  0  0  0  0  0  0  0  0  0  0
   28.2631   11.2094   10.9317 H   0  0  0  0  0  0  0  0  0  0  0  0
  1  2  1  0
  2  3  1  0
  3  4  2  0
  4  5  1  0
  5  6  1  0
  6  7  2  0
  6  8  2  0
  6  9  1  0
  9 10  1  0
 10 11  1  0
 11 12  1  0
 12 13  2  0
 12 14  1  0
 14 15  2  0
 15 16  1  0
 16 17  1  0
 17 18  2  0
 18 19  1  0
 19 20  2  0
 20 21  1  0
 21 22  2  0
 21 23  1  0
 23 24  2  0
 23 25  1  0
 25 26  1  0
 26 27  1  0
 27 28  1  0
 28 29  1  0
 29 30  2  0
 29 31  1  0
 31 32  1  0
 32 33  2  0
 25 34  1  0
  5 35  1  0
 35 36  2  0
 36  3  1  0
 16 10  2  0
 22 17  1  0
 32 26  1  0
 34 20  1  0
  1 37  1  0
  1 38  1  0
  1 39  1  0
  2 40  1  0
  2 41  1  0
  4 42  1  0
 11 43  1  0
 14 44  1  0
 15 45  1  0
 18 46  1  0
 19 47  1  0
 22 48  1  0
 26 49  1  1
 27 50  1  0
 27 51  1  0
 28 52  1  0
 28 53  1  0
 31 54  1  0
 34 55  1  0
 34 56  1  0
 35 57  1  0
M  END
>  <meeko>  (444) 
{"is_sidechain": [true], "free_energy": -12.54, "intermolecular_energy": 0.0, "internal_energy": -12.54, "cluster_size": 7, "cluster_id": 1, "rank_in_cluster": 1}

>  <_RMSD_MCS_to_ref>  (444) 
1.1072520540107893

$$$$
ligand
     RDKit          3D

 57 61  0  0  0  0  0  0  0  0999 V2000
   24.8540    9.4020    7.6050 C   0  0  0  0  0  0  0  0  0  0  0  0
   25.5230   10.7550    7.4270 C   0  0  0  0  0  0  0  0  0  0  0  0
   24.9780   11.5060    6.2630 C   0  0  0  0  0  0  0  0  0  0  0  0
   25.2650   12.7910    5.8450 C   0  0  0  0  0  0  0  0  0  0  0  0
   24.4780   12.9660    4.7430 N   0  0  0  0  0  0  0  0  0  0  0  0
   24.4210   14.3370    3.7740 S   0  0  0  0  0  6  0  0  0  0  0  0
   23.6990   15.3460    4.5240 O   0  0  0  0  0  0  0  0  0  0  0  0
   23.9460   13.8420    2.4960 O   0  0  0  0  0  0  0  0  0  0  0  0
   26.0970   14.8800    3.5790 C   0  0  0  0  0  0  0  0  0  0  0  0
   26.7130   14.6600    2.3360 C   0  0  0  0  0  0  0  0  0  0  0  0
   28.0280   15.0710    2.1230 C   0  0  0  0  0  0  0  0  0  0  0  0
   28.7310   15.7050    3.1450 C   0  0  0  0  0  0  0  0  0  0  0  0
   28.1170   15.9340    4.3780 C   0  0  0  0  0  0  0  0  0  0  0  0
   26.7950   15.5270    4.6060 C   0  0  0  0  0  0  0  0  0  0  0  0
   26.2330   15.7960    5.8940 C   0  0  0  0  0  0  0  0  0  0  0  0
   25.7600   15.9770    6.9830 C   0  0  0  0  0  0  0  0  0  0  0  0
   25.2710   16.1680    8.3120 C   0  0  0  0  0  0  0  0  0  0  0  0
   24.0650   15.5520    8.7140 C   0  0  0  0  0  0  0  0  0  0  0  0
   23.5860   15.6990   10.0210 C   0  0  0  0  0  0  0  0  0  0  0  0
   24.3450   16.4610   10.8890 C   0  0  0  0  0  0  0  0  0  0  0  0
   25.5250   17.0640   10.4930 C   0  0  0  0  0  0  0  0  0  0  0  0
   26.0170   16.9400    9.2090 C   0  0  0  0  0  0  0  0  0  0  0  0
   26.0540   17.7940   11.6430 C   0  0  0  0  0  0  0  0  0  0  0  0
   27.0440   18.4990   11.6070 O   0  0  0  0  0  0  0  0  0  0  0  0
   25.2040   17.5520   12.6860 N   0  0  0  0  0  0  0  0  0  0  0  0
   25.2760   18.1980   13.9880 C   0  0  1  0  0  0  0  0  0  0  0  0
   26.3480   17.6280   14.9110 C   0  0  0  0  0  0  0  0  0  0  0  0
   26.3000   18.3590   16.2460 C   0  0  0  0  0  0  0  0  0  0  0  0
   26.4650   19.8500   16.0590 C   0  0  0  0  0  0  0  0  0  0  0  0
   26.9490   20.5690   16.9280 O   0  0  0  0  0  0  0  0  0  0  0  0
   25.9900   20.3800   14.8850 N   0  0  0  0  0  0  0  0  0  0  0  0
   25.4930   19.7030   13.7930 C   0  0  0  0  0  0  0  0  0  0  0  0
   25.1990   20.3120   12.7650 O   0  0  0  0  0  0  0  0  0  0  0  0
   24.1290   16.8000   12.2930 C   0  0  0  0  0  0  0  0  0  0  0  0
   23.1610   16.4530   12.9420 O   0  0  0  0  0  0  0  0  0  0  0  0
   23.8110   11.8120    4.4820 C   0  0  0  0  0  0  0  0  0  0  0  0
   24.0660   10.9120    5.4100 N   0  0  0  0  0  0  0  0  0  0  0  0
   24.7464    9.1845    8.6779 H   0  0  0  0  0  0  0  0  0  0  0  0
   23.8606    9.4192    7.1330 H   0  0  0  0  0  0  0  0  0  0  0  0
   25.4708    8.6230    7.1330 H   0  0  0  0  0  0  0  0  0  0  0  0
   25.3643   11.3507    8.3380 H   0  0  0  0  0  0  0  0  0  0  0  0
   26.5932   10.5796    7.2431 H   0  0  0  0  0  0  0  0  0  0  0  0
   25.9663   13.5083    6.2962 H   0  0  0  0  0  0  0  0  0  0  0  0
   26.1563   14.1621    1.5284 H   0  0  0  0  0  0  0  0  0  0  0  0
   28.5096   14.8950    1.1498 H   0  0  0  0  0  0  0  0  0  0  0  0
   29.7704   16.0254    2.9806 H   0  0  0  0  0  0  0  0  0  0  0  0
   28.6766   16.4392    5.1790 H   0  0  0  0  0  0  0  0  0  0  0  0
   23.4954   14.9495    7.9911 H   0  0  0  0  0  0  0  0  0  0  0  0
   22.6456   15.2281   10.3435 H   0  0  0  0  0  0  0  0  0  0  0  0
   26.9550   17.4272    8.9044 H   0  0  0  0  0  0  0  0  0  0  0  0
   24.3176   18.0002   14.4904 H   0  0  0  0  0  0  0  0  0  0  0  0
   26.1627   16.5557   15.0719 H   0  0  0  0  0  0  0  0  0  0  0  0
   27.3390   17.7608   14.4525 H   0  0  0  0  0  0  0  0  0  0  0  0
   25.3308   18.1629   16.7278 H   0  0  0  0  0  0  0  0  0  0  0  0
   27.1261   17.9931   16.8734 H   0  0  0  0  0  0  0  0  0  0  0  0
   26.0073   21.4073   14.8119 H   0  0  0  0  0  0  0  0  0  0  0  0
   23.1505   11.6513    3.6172 H   0  0  0  0  0  0  0  0  0  0  0  0
  1  2  1  0
  2  3  1  0
  3  4  2  0
  4  5  1  0
  5  6  1  0
  6  7  2  0
  6  8  2  0
  6  9  1  0
  9 10  2  0
 10 11  1  0
 11 12  2  0
 12 13  1  0
 13 14  2  0
 14 15  1  0
 15 16  3  0
 16 17  1  0
 17 18  2  0
 18 19  1  0
 19 20  2  0
 20 21  1  0
 21 22  2  0
 21 23  1  0
 23 24  2  0
 23 25  1  0
 25 26  1  0
 26 27  1  0
 27 28  1  0
 28 29  1  0
 29 30  2  0
 29 31  1  0
 31 32  1  0
 32 33  2  0
 25 34  1  0
 34 35  2  0
  5 36  1  0
 36 37  2  0
 37  3  1  0
 14  9  1  0
 22 17  1  0
 32 26  1  0
 34 20  1  0
  1 38  1  0
  1 39  1  0
  1 40  1  0
  2 41  1  0
  2 42  1  0
  4 43  1  0
 10 44  1  0
 11 45  1  0
 12 46  1  0
 13 47  1  0
 18 48  1  0
 19 49  1  0
 22 50  1  0
 26 51  1  1
 27 52  1  0
 27 53  1  0
 28 54  1  0
 28 55  1  0
 31 56  1  0
 36 57  1  0
M  END
>  <meeko>  (445) 
{"is_sidechain": [true], "free_energy": -12.53, "intermolecular_energy": 0.0, "internal_energy": -12.53, "cluster_size": 20, "cluster_id": 1, "rank_in_cluster": 1}

>  <_RMSD_MCS_to_ref>  (445) 
0.7810331476818235

$$$$
ligand
     RDKit          3D

 59 64  0  0  0  0  0  0  0  0999 V2000
   24.8540    9.4020    7.6050 C   0  0  0  0  0  0  0  0  0  0  0  0
   25.5230   10.7550    7.4270 C   0  0  0  0  0  0  0  0  0  0  0  0
   25.0270   11.4730    6.2210 C   0  0  0  0  0  0  0  0  0  0  0  0
   25.3080   12.7570    5.7990 C   0  0  0  0  0  0  0  0  0  0  0  0
   24.5890   12.8970    4.6470 N   0  0  0  0  0  0  0  0  0  0  0  0
   24.7360   14.1470    3.5190 S   0  0  0  0  0  6  0  0  0  0  0  0
   23.4910   14.8870    3.6240 O   0  0  0  0  0  0  0  0  0  0  0  0
   25.0670   13.4520    2.2860 O   0  0  0  0  0  0  0  0  0  0  0  0
   26.0730   15.1230    4.0360 C   0  0  0  0  0  0  0  0  0  0  0  0
   27.0700   15.3640    3.1580 C   0  0  0  0  0  0  0  0  0  0  0  0
   28.2220   16.1430    3.5800 C   0  0  0  0  0  0  0  0  0  0  0  0
   28.3210   16.6160    4.8350 C   0  0  0  0  0  0  0  0  0  0  0  0
   27.2790   16.3660    5.7700 C   0  0  0  0  0  0  0  0  0  0  0  0
   27.1720   16.7080    7.0340 N   0  0  0  0  0  0  0  0  0  0  0  0
   25.9550   16.2290    7.4500 C   0  0  0  0  0  0  0  0  0  0  0  0
   25.4520   16.4120    8.8060 C   0  0  0  0  0  0  0  0  0  0  0  0
   24.3230   15.7040    9.2850 C   0  0  0  0  0  0  0  0  0  0  0  0
   23.8560   15.8850   10.5920 C   0  0  0  0  0  0  0  0  0  0  0  0
   24.5330   16.7820   11.3910 C   0  0  0  0  0  0  0  0  0  0  0  0
   25.6440   17.4920   10.9490 C   0  0  0  0  0  0  0  0  0  0  0  0
   26.1140   17.3180    9.6580 C   0  0  0  0  0  0  0  0  0  0  0  0
   26.1660   18.3570   12.0440 C   0  0  0  0  0  0  0  0  0  0  0  0
   25.1860   18.1590   13.1040 N   0  0  0  0  0  0  0  0  0  0  0  0
   25.4180   18.6590   14.4540 C   0  0  1  0  0  0  0  0  0  0  0  0
   26.5590   17.9510   15.1840 C   0  0  0  0  0  0  0  0  0  0  0  0
   26.6730   18.5050   16.5950 C   0  0  0  0  0  0  0  0  0  0  0  0
   26.8750   20.0030   16.5830 C   0  0  0  0  0  0  0  0  0  0  0  0
   27.3960   20.6000   17.5200 O   0  0  0  0  0  0  0  0  0  0  0  0
   26.3700   20.6840   15.5040 N   0  0  0  0  0  0  0  0  0  0  0  0
   25.6380   20.1800   14.4530 C   0  0  0  0  0  0  0  0  0  0  0  0
   25.1170   20.9410   13.6390 O   0  0  0  0  0  0  0  0  0  0  0  0
   24.2730   17.1650   12.7840 C   0  0  0  0  0  0  0  0  0  0  0  0
   23.4190   16.6630   13.4900 O   0  0  0  0  0  0  0  0  0  0  0  0
   25.3210   15.5750    6.4160 C   0  0  0  0  0  0  0  0  0  0  0  0
   26.1710   15.6360    5.3340 N   0  0  0  0  0  0  0  0  0  0  0  0
   23.9350   11.7350    4.3870 C   0  0  0  0  0  0  0  0  0  0  0  0
   24.1770   10.8480    5.3290 N   0  0  0  0  0  0  0  0  0  0  0  0
   24.7464    9.1845    8.6779 H   0  0  0  0  0  0  0  0  0  0  0  0
   23.8606    9.4192    7.1330 H   0  0  0  0  0  0  0  0  0  0  0  0
   25.4708    8.6230    7.1330 H   0  0  0  0  0  0  0  0  0  0  0  0
   25.3185   11.3709    8.3151 H   0  0  0  0  0  0  0  0  0  0  0  0
   26.6020   10.5840    7.2984 H   0  0  0  0  0  0  0  0  0  0  0  0
   25.9622   13.4984    6.2811 H   0  0  0  0  0  0  0  0  0  0  0  0
   27.0108   14.9738    2.1313 H   0  0  0  0  0  0  0  0  0  0  0  0
   29.0275   16.3495    2.8599 H   0  0  0  0  0  0  0  0  0  0  0  0
   29.2060   17.1950    5.1377 H   0  0  0  0  0  0  0  0  0  0  0  0
   23.8040   14.9996    8.6183 H   0  0  0  0  0  0  0  0  0  0  0  0
   22.9820   15.3326   10.9675 H   0  0  0  0  0  0  0  0  0  0  0  0
   26.9912   17.8788    9.3030 H   0  0  0  0  0  0  0  0  0  0  0  0
   27.1670   18.0315   12.3635 H   0  0  0  0  0  0  0  0  0  0  0  0
   26.2835   19.4103   11.7496 H   0  0  0  0  0  0  0  0  0  0  0  0
   24.5015   18.4287   15.0170 H   0  0  0  0  0  0  0  0  0  0  0  0
   26.3528   16.8714   15.2287 H   0  0  0  0  0  0  0  0  0  0  0  0
   27.5026   18.1199   14.6445 H   0  0  0  0  0  0  0  0  0  0  0  0
   25.7503   18.2724   17.1468 H   0  0  0  0  0  0  0  0  0  0  0  0
   27.5445   18.0413   17.0804 H   0  0  0  0  0  0  0  0  0  0  0  0
   26.5621   21.6956   15.4774 H   0  0  0  0  0  0  0  0  0  0  0  0
   24.3304   15.0978    6.4484 H   0  0  0  0  0  0  0  0  0  0  0  0
   23.2927   11.5598    3.5113 H   0  0  0  0  0  0  0  0  0  0  0  0
  1  2  1  0
  2  3  1  0
  3  4  2  0
  4  5  1  0
  5  6  1  0
  6  7  2  0
  6  8  2  0
  6  9  1  0
  9 10  2  0
 10 11  1  0
 11 12  2  0
 12 13  1  0
 13 14  2  0
 14 15  1  0
 15 16  1  0
 16 17  2  0
 17 18  1  0
 18 19  2  0
 19 20  1  0
 20 21  2  0
 20 22  1  0
 22 23  1  0
 23 24  1  0
 24 25  1  0
 25 26  1  0
 26 27  1  0
 27 28  2  0
 27 29  1  0
 29 30  1  0
 30 31  2  0
 23 32  1  0
 32 33  2  0
 15 34  2  0
 34 35  1  0
  5 36  1  0
 36 37  2  0
 37  3  1  0
 35  9  1  0
 35 13  1  0
 21 16  1  0
 30 24  1  0
 32 19  1  0
  1 38  1  0
  1 39  1  0
  1 40  1  0
  2 41  1  0
  2 42  1  0
  4 43  1  0
 10 44  1  0
 11 45  1  0
 12 46  1  0
 17 47  1  0
 18 48  1  0
 21 49  1  0
 22 50  1  0
 22 51  1  0
 24 52  1  1
 25 53  1  0
 25 54  1  0
 26 55  1  0
 26 56  1  0
 29 57  1  0
 34 58  1  0
 36 59  1  0
M  END
>  <meeko>  (446) 
{"is_sidechain": [true], "free_energy": -12.53, "intermolecular_energy": 0.0, "internal_energy": -12.53, "cluster_size": 18, "cluster_id": 1, "rank_in_cluster": 1}

>  <_RMSD_MCS_to_ref>  (446) 
0.5549753748290693

$$$$
ligand
     RDKit          3D

 60 65  0  0  0  0  0  0  0  0999 V2000
   24.8710    9.6160    7.7820 C   0  0  0  0  0  0  0  0  0  0  0  0
   25.4240   10.9650    7.3490 C   0  0  0  0  0  0  0  0  0  0  0  0
   26.7390   10.8400    6.6650 C   0  0  0  0  0  0  0  0  0  0  0  0
   28.0060   11.0720    7.1650 C   0  0  0  0  0  0  0  0  0  0  0  0
   28.8380   10.7680    6.1260 N   0  0  0  0  0  0  0  0  0  0  0  0
   30.4900   11.0930    6.0610 S   0  0  0  0  0  6  0  0  0  0  0  0
   31.0800   10.2090    7.0490 O   0  0  0  0  0  0  0  0  0  0  0  0
   30.8320   10.9980    4.6550 O   0  0  0  0  0  0  0  0  0  0  0  0
   30.6620   12.6380    6.5520 O   0  0  0  0  0  0  0  0  0  0  0  0
   29.7450   13.2680    7.3170 C   0  0  0  0  0  0  0  0  0  0  0  0
   29.7170   13.3730    8.6870 C   0  0  0  0  0  0  0  0  0  0  0  0
   28.6300   14.0870    9.0770 O   0  0  0  0  0  0  0  0  0  0  0  0
   27.9460   14.4480    7.9470 C   0  0  0  0  0  0  0  0  0  0  0  0
   26.7550   15.1940    7.9060 C   0  0  0  0  0  0  0  0  0  0  0  0
   26.0950   15.6910    9.1210 C   0  0  0  0  0  0  0  0  0  0  0  0
   24.7130   15.4510    9.3360 C   0  0  0  0  0  0  0  0  0  0  0  0
   24.0530   15.9200   10.4780 C   0  0  0  0  0  0  0  0  0  0  0  0
   24.8010   16.6250   11.3960 C   0  0  0  0  0  0  0  0  0  0  0  0
   26.1570   16.8810   11.2190 C   0  0  0  0  0  0  0  0  0  0  0  0
   26.8140   16.4240   10.0890 C   0  0  0  0  0  0  0  0  0  0  0  0
   26.6780   17.6810   12.3650 C   0  0  0  0  0  0  0  0  0  0  0  0
   25.5250   17.7550   13.2530 N   0  0  0  0  0  0  0  0  0  0  0  0
   25.5210   18.6350   14.4180 C   0  0  2  0  0  0  0  0  0  0  0  0
   26.1840   19.9880   14.1670 C   0  0  0  0  0  0  0  0  0  0  0  0
   26.0710   20.8440   15.4200 C   0  0  0  0  0  0  0  0  0  0  0  0
   26.6760   20.1480   16.6160 C   0  0  0  0  0  0  0  0  0  0  0  0
   27.0740   20.7650   17.6000 O   0  0  0  0  0  0  0  0  0  0  0  0
   26.6860   18.7760   16.5920 N   0  0  0  0  0  0  0  0  0  0  0  0
   26.1460   17.9430   15.6390 C   0  0  0  0  0  0  0  0  0  0  0  0
   26.0870   16.7300   15.8380 O   0  0  0  0  0  0  0  0  0  0  0  0
   24.3840   17.2300   12.6650 C   0  0  0  0  0  0  0  0  0  0  0  0
   23.2390   17.2580   13.0740 O   0  0  0  0  0  0  0  0  0  0  0  0
   26.2450   15.4280    6.6120 C   0  0  0  0  0  0  0  0  0  0  0  0
   26.8820   14.9510    5.4620 C   0  0  0  0  0  0  0  0  0  0  0  0
   28.0650   14.2120    5.5510 C   0  0  0  0  0  0  0  0  0  0  0  0
   28.6070   13.9560    6.8240 C   0  0  0  0  0  0  0  0  0  0  0  0
   28.0910   10.4560    5.0360 C   0  0  0  0  0  0  0  0  0  0  0  0
   26.8090   10.4660    5.3370 N   0  0  0  0  0  0  0  0  0  0  0  0
   24.8497    9.5640    8.8806 H   0  0  0  0  0  0  0  0  0  0  0  0
   23.8507    9.4948    7.3893 H   0  0  0  0  0  0  0  0  0  0  0  0
   25.5127    8.8135    7.3893 H   0  0  0  0  0  0  0  0  0  0  0  0
   24.7089   11.4359    6.6584 H   0  0  0  0  0  0  0  0  0  0  0  0
   25.5699   11.5758    8.2522 H   0  0  0  0  0  0  0  0  0  0  0  0
   28.2815   11.4219    8.1708 H   0  0  0  0  0  0  0  0  0  0  0  0
   30.4656   12.9417    9.3679 H   0  0  0  0  0  0  0  0  0  0  0  0
   24.1453   14.8814    8.5855 H   0  0  0  0  0  0  0  0  0  0  0  0
   22.9806   15.7333   10.6362 H   0  0  0  0  0  0  0  0  0  0  0  0
   27.8852   16.6302    9.9474 H   0  0  0  0  0  0  0  0  0  0  0  0
   27.5225   17.1722   12.8527 H   0  0  0  0  0  0  0  0  0  0  0  0
   27.0657   18.6670   12.0692 H   0  0  0  0  0  0  0  0  0  0  0  0
   24.4619   18.8451   14.6283 H   0  0  0  0  0  0  0  0  0  0  0  0
   27.2452   19.8369   13.9198 H   0  0  0  0  0  0  0  0  0  0  0  0
   25.6826   20.4940   13.3288 H   0  0  0  0  0  0  0  0  0  0  0  0
   26.5990   21.7945   15.2535 H   0  0  0  0  0  0  0  0  0  0  0  0
   25.0048   21.0218   15.6242 H   0  0  0  0  0  0  0  0  0  0  0  0
   27.1548   18.3133   17.3838 H   0  0  0  0  0  0  0  0  0  0  0  0
   25.3149   16.0051    6.5037 H   0  0  0  0  0  0  0  0  0  0  0  0
   26.4461   15.1603    4.4740 H   0  0  0  0  0  0  0  0  0  0  0  0
   28.5624   13.8380    4.6440 H   0  0  0  0  0  0  0  0  0  0  0  0
   28.4995   10.2269    4.0407 H   0  0  0  0  0  0  0  0  0  0  0  0
  1  2  1  0
  2  3  1  0
  3  4  2  0
  4  5  1  0
  5  6  1  0
  6  7  2  0
  6  8  2  0
  6  9  1  0
  9 10  1  0
 10 11  2  0
 11 12  1  0
 12 13  1  0
 13 14  2  0
 14 15  1  0
 15 16  2  0
 16 17  1  0
 17 18  2  0
 18 19  1  0
 19 20  2  0
 19 21  1  0
 21 22  1  0
 22 23  1  0
 23 24  1  0
 24 25  1  0
 25 26  1  0
 26 27  2  0
 26 28  1  0
 28 29  1  0
 29 30  2  0
 22 31  1  0
 31 32  2  0
 14 33  1  0
 33 34  2  0
 34 35  1  0
 35 36  2  0
  5 37  1  0
 37 38  2  0
 38  3  1  0
 36 10  1  0
 36 13  1  0
 20 15  1  0
 29 23  1  0
 31 18  1  0
  1 39  1  0
  1 40  1  0
  1 41  1  0
  2 42  1  0
  2 43  1  0
  4 44  1  0
 11 45  1  0
 16 46  1  0
 17 47  1  0
 20 48  1  0
 21 49  1  0
 21 50  1  0
 23 51  1  1
 24 52  1  0
 24 53  1  0
 25 54  1  0
 25 55  1  0
 28 56  1  0
 33 57  1  0
 34 58  1  0
 35 59  1  0
 37 60  1  0
M  END
>  <meeko>  (447) 
{"is_sidechain": [true], "free_energy": -12.53, "intermolecular_energy": 0.0, "internal_energy": -12.53, "cluster_size": 19, "cluster_id": 1, "rank_in_cluster": 1}

>  <_RMSD_MCS_to_ref>  (447) 
1.7586290264383728

$$$$
ligand
     RDKit          3D

 48 51  0  0  0  0  0  0  0  0999 V2000
   24.8710    9.6160    7.7820 C   0  0  0  0  0  0  0  0  0  0  0  0
   25.4240   10.9650    7.3490 C   0  0  0  0  0  0  0  0  0  0  0  0
   26.4810   11.4850    8.2620 C   0  0  0  0  0  0  0  0  0  0  0  0
   27.3220   12.5670    8.0880 C   0  0  0  0  0  0  0  0  0  0  0  0
   28.0180   12.6420    9.2600 N   0  0  0  0  0  0  0  0  0  0  0  0
   29.2170   13.7590    9.6220 S   0  0  0  0  0  6  0  0  0  0  0  0
   29.9280   13.9960    8.3800 O   0  0  0  0  0  0  0  0  0  0  0  0
   29.9000   13.1900   10.7700 O   0  0  0  0  0  0  0  0  0  0  0  0
   28.5260   15.1380   10.1120 O   0  0  0  0  0  0  0  0  0  0  0  0
   27.2160   15.4140   10.0260 C   0  0  0  0  0  0  0  0  0  0  0  0
   26.8120   15.2630    8.6130 C   0  0  0  0  0  0  0  0  0  0  0  0
   25.5050   15.3690    8.3550 C   0  0  0  0  0  0  0  0  0  0  0  0
   24.6130   15.6510    9.4110 C   0  0  0  0  0  0  0  0  0  0  0  0
   23.3040   15.7430    9.4130 N   0  0  0  0  0  0  0  0  0  0  0  0
   22.9780   16.0700   10.7010 C   0  0  0  0  0  0  0  0  0  0  0  0
   24.1000   16.2170   11.4980 C   0  0  0  0  0  0  0  0  0  0  0  0
   24.1150   16.6450   12.8680 C   0  0  0  0  0  0  0  0  0  0  0  0
   23.1280   16.5780   13.5950 O   0  0  0  0  0  0  0  0  0  0  0  0
   25.2810   17.2220   13.3040 N   0  0  0  0  0  0  0  0  0  0  0  0
   25.3150   18.0300   14.5150 C   0  0  1  0  0  0  0  0  0  0  0  0
   26.2330   17.4380   15.5750 C   0  0  0  0  0  0  0  0  0  0  0  0
   26.3090   18.3710   16.7720 C   0  0  0  0  0  0  0  0  0  0  0  0
   26.7230   19.7670   16.3650 C   0  0  0  0  0  0  0  0  0  0  0  0
   27.3900   20.4960   17.0940 O   0  0  0  0  0  0  0  0  0  0  0  0
   26.2620   20.2150   15.1540 N   0  0  0  0  0  0  0  0  0  0  0  0
   25.7530   19.4470   14.1380 C   0  0  0  0  0  0  0  0  0  0  0  0
   25.6090   19.9050   13.0020 O   0  0  0  0  0  0  0  0  0  0  0  0
   25.1500   15.8740   10.6760 N   0  0  0  0  0  0  0  0  0  0  0  0
   26.4800   15.7440   11.0340 N   0  0  0  0  0  0  0  0  0  0  0  0
   27.6470   11.6170   10.0670 C   0  0  0  0  0  0  0  0  0  0  0  0
   26.7090   10.8910    9.4910 N   0  0  0  0  0  0  0  0  0  0  0  0
   24.8497    9.5640    8.8806 H   0  0  0  0  0  0  0  0  0  0  0  0
   23.8507    9.4948    7.3893 H   0  0  0  0  0  0  0  0  0  0  0  0
   25.5127    8.8135    7.3893 H   0  0  0  0  0  0  0  0  0  0  0  0
   25.8525   10.8604    6.3413 H   0  0  0  0  0  0  0  0  0  0  0  0
   24.5907   11.6827    7.3703 H   0  0  0  0  0  0  0  0  0  0  0  0
   27.4106   13.2191    7.2066 H   0  0  0  0  0  0  0  0  0  0  0  0
   27.5469   15.0736    7.8167 H   0  0  0  0  0  0  0  0  0  0  0  0
   25.1286   15.2377    7.3298 H   0  0  0  0  0  0  0  0  0  0  0  0
   21.9466   16.2006   11.0604 H   0  0  0  0  0  0  0  0  0  0  0  0
   26.1475   17.0812   12.7653 H   0  0  0  0  0  0  0  0  0  0  0  0
   24.3086   18.0507   14.9584 H   0  0  0  0  0  0  0  0  0  0  0  0
   25.8378   16.4632   15.8968 H   0  0  0  0  0  0  0  0  0  0  0  0
   27.2400   17.3092   15.1514 H   0  0  0  0  0  0  0  0  0  0  0  0
   25.3201   18.4176   17.2515 H   0  0  0  0  0  0  0  0  0  0  0  0
   27.0650   17.9772   17.4673 H   0  0  0  0  0  0  0  0  0  0  0  0
   26.3020   21.2312   14.9907 H   0  0  0  0  0  0  0  0  0  0  0  0
   28.0696   11.4190   11.0631 H   0  0  0  0  0  0  0  0  0  0  0  0
  1  2  1  0
  2  3  1  0
  3  4  2  0
  4  5  1  0
  5  6  1  0
  6  7  2  0
  6  8  2  0
  6  9  1  0
  9 10  1  0
 10 11  1  0
 11 12  2  0
 12 13  1  0
 13 14  2  0
 14 15  1  0
 15 16  2  0
 16 17  1  0
 17 18  2  0
 17 19  1  0
 19 20  1  0
 20 21  1  0
 21 22  1  0
 22 23  1  0
 23 24  2  0
 23 25  1  0
 25 26  1  0
 26 27  2  0
 16 28  1  0
 28 29  1  0
  5 30  1  0
 30 31  2  0
 31  3  1  0
 29 10  2  0
 28 13  1  0
 26 20  1  0
  1 32  1  0
  1 33  1  0
  1 34  1  0
  2 35  1  0
  2 36  1  0
  4 37  1  0
 11 38  1  0
 12 39  1  0
 15 40  1  0
 19 41  1  0
 20 42  1  1
 21 43  1  0
 21 44  1  0
 22 45  1  0
 22 46  1  0
 25 47  1  0
 30 48  1  0
M  END
>  <meeko>  (448) 
{"is_sidechain": [true], "free_energy": -12.53, "intermolecular_energy": 0.0, "internal_energy": -12.53, "cluster_size": 9, "cluster_id": 1, "rank_in_cluster": 1}

>  <_RMSD_MCS_to_ref>  (448) 
0.614195046834111

$$$$
ligand
     RDKit          3D

 58 62  0  0  0  0  0  0  0  0999 V2000
   24.8540    9.4020    7.6050 C   0  0  0  0  0  0  0  0  0  0  0  0
   25.5230   10.7550    7.4270 C   0  0  0  0  0  0  0  0  0  0  0  0
   25.3940   11.2680    6.0350 C   0  0  0  0  0  0  0  0  0  0  0  0
   26.1920   12.1730    5.3650 C   0  0  0  0  0  0  0  0  0  0  0  0
   25.6330   12.2570    4.1230 N   0  0  0  0  0  0  0  0  0  0  0  0
   26.0380   13.3730    2.9350 S   0  0  0  0  0  6  0  0  0  0  0  0
   27.4840   13.4480    2.9260 O   0  0  0  0  0  0  0  0  0  0  0  0
   25.2700   13.0000    1.7620 O   0  0  0  0  0  0  0  0  0  0  0  0
   25.4050   14.8940    3.5420 C   0  0  0  0  0  0  0  0  0  0  0  0
   24.7960   15.7710    2.6630 C   0  0  0  0  0  0  0  0  0  0  0  0
   24.2950   16.9650    3.0510 N   0  0  0  0  0  0  0  0  0  0  0  0
   24.3890   17.2770    4.3700 C   0  0  0  0  0  0  0  0  0  0  0  0
   24.9450   16.4340    5.3280 C   0  0  0  0  0  0  0  0  0  0  0  0
   24.9760   16.8850    6.7400 C   0  0  0  0  0  0  0  0  0  0  0  0
   25.4600   17.9840    6.9770 O   0  0  0  0  0  0  0  0  0  0  0  0
   24.4140   16.0120    7.6570 N   0  0  0  0  0  0  0  0  0  0  0  0
   24.3640   16.1690    9.0610 C   0  0  0  0  0  0  0  0  0  0  0  0
   23.2910   15.7220    9.8620 C   0  0  0  0  0  0  0  0  0  0  0  0
   23.2840   15.9120   11.2530 C   0  0  0  0  0  0  0  0  0  0  0  0
   24.3710   16.5510   11.8080 C   0  0  0  0  0  0  0  0  0  0  0  0
   25.4220   16.9940   11.0330 C   0  0  0  0  0  0  0  0  0  0  0  0
   25.4510   16.8240    9.6600 C   0  0  0  0  0  0  0  0  0  0  0  0
   26.3880   17.6290   11.9230 C   0  0  0  0  0  0  0  0  0  0  0  0
   27.4220   18.1480   11.5480 O   0  0  0  0  0  0  0  0  0  0  0  0
   25.8950   17.5060   13.1940 N   0  0  0  0  0  0  0  0  0  0  0  0
   26.5090   18.1570   14.3420 C   0  0  2  0  0  0  0  0  0  0  0  0
   25.9040   17.7630   15.6870 C   0  0  0  0  0  0  0  0  0  0  0  0
   26.6540   18.4800   16.8000 C   0  0  0  0  0  0  0  0  0  0  0  0
   26.6340   19.9780   16.6000 C   0  0  0  0  0  0  0  0  0  0  0  0
   26.7110   20.7650   17.5370 O   0  0  0  0  0  0  0  0  0  0  0  0
   26.5850   20.4250   15.3030 N   0  0  0  0  0  0  0  0  0  0  0  0
   26.4380   19.6770   14.1560 C   0  0  0  0  0  0  0  0  0  0  0  0
   26.3220   20.2270   13.0620 O   0  0  0  0  0  0  0  0  0  0  0  0
   24.6630   16.9110   13.1940 C   0  0  0  0  0  0  0  0  0  0  0  0
   23.9050   16.7140   14.1240 O   0  0  0  0  0  0  0  0  0  0  0  0
   25.4780   15.2150    4.9000 C   0  0  0  0  0  0  0  0  0  0  0  0
   24.5270   11.4710    4.0780 C   0  0  0  0  0  0  0  0  0  0  0  0
   24.3580   10.8480    5.2240 N   0  0  0  0  0  0  0  0  0  0  0  0
   24.7464    9.1845    8.6779 H   0  0  0  0  0  0  0  0  0  0  0  0
   23.8606    9.4192    7.1330 H   0  0  0  0  0  0  0  0  0  0  0  0
   25.4708    8.6230    7.1330 H   0  0  0  0  0  0  0  0  0  0  0  0
   25.0548   11.4748    8.1145 H   0  0  0  0  0  0  0  0  0  0  0  0
   26.5945   10.6328    7.6437 H   0  0  0  0  0  0  0  0  0  0  0  0
   27.0765   12.7050    5.7453 H   0  0  0  0  0  0  0  0  0  0  0  0
   24.7160   15.4850    1.6039 H   0  0  0  0  0  0  0  0  0  0  0  0
   24.0032   18.2528    4.7001 H   0  0  0  0  0  0  0  0  0  0  0  0
   23.9865   15.1564    7.2747 H   0  0  0  0  0  0  0  0  0  0  0  0
   22.4405   15.2129    9.3851 H   0  0  0  0  0  0  0  0  0  0  0  0
   22.4451   15.5649   11.8741 H   0  0  0  0  0  0  0  0  0  0  0  0
   26.2967   17.1896    9.0590 H   0  0  0  0  0  0  0  0  0  0  0  0
   27.5527   17.8115   14.3769 H   0  0  0  0  0  0  0  0  0  0  0  0
   24.8429   18.0520   15.7123 H   0  0  0  0  0  0  0  0  0  0  0  0
   25.9867   16.6749   15.8258 H   0  0  0  0  0  0  0  0  0  0  0  0
   26.1798   18.2409   17.7633 H   0  0  0  0  0  0  0  0  0  0  0  0
   27.7007   18.1421   16.7866 H   0  0  0  0  0  0  0  0  0  0  0  0
   26.6683   21.4432   15.1718 H   0  0  0  0  0  0  0  0  0  0  0  0
   25.9448   14.5233    5.6166 H   0  0  0  0  0  0  0  0  0  0  0  0
   23.8650   11.3694    3.2054 H   0  0  0  0  0  0  0  0  0  0  0  0
  1  2  1  0
  2  3  1  0
  3  4  2  0
  4  5  1  0
  5  6  1  0
  6  7  2  0
  6  8  2  0
  6  9  1  0
  9 10  2  0
 10 11  1  0
 11 12  2  0
 12 13  1  0
 13 14  1  0
 14 15  2  0
 14 16  1  0
 16 17  1  0
 17 18  2  0
 18 19  1  0
 19 20  2  0
 20 21  1  0
 21 22  2  0
 21 23  1  0
 23 24  2  0
 23 25  1  0
 25 26  1  0
 26 27  1  0
 27 28  1  0
 28 29  1  0
 29 30  2  0
 29 31  1  0
 31 32  1  0
 32 33  2  0
 25 34  1  0
 34 35  2  0
 13 36  2  0
  5 37  1  0
 37 38  2  0
 38  3  1  0
 36  9  1  0
 22 17  1  0
 32 26  1  0
 34 20  1  0
  1 39  1  0
  1 40  1  0
  1 41  1  0
  2 42  1  0
  2 43  1  0
  4 44  1  0
 10 45  1  0
 12 46  1  0
 16 47  1  0
 18 48  1  0
 19 49  1  0
 22 50  1  0
 26 51  1  1
 27 52  1  0
 27 53  1  0
 28 54  1  0
 28 55  1  0
 31 56  1  0
 36 57  1  0
 37 58  1  0
M  END
>  <meeko>  (449) 
{"is_sidechain": [true], "free_energy": -12.52, "intermolecular_energy": 0.0, "internal_energy": -12.52, "cluster_size": 20, "cluster_id": 1, "rank_in_cluster": 1}

>  <_RMSD_MCS_to_ref>  (449) 
1.1073437813073217

$$$$
ligand
     RDKit          3D

 59 64  0  0  0  0  0  0  0  0999 V2000
   24.8540    9.4020    7.6050 C   0  0  0  0  0  0  0  0  0  0  0  0
   25.5230   10.7550    7.4270 C   0  0  0  0  0  0  0  0  0  0  0  0
   25.6520   11.1350    5.9930 C   0  0  0  0  0  0  0  0  0  0  0  0
   24.6800   11.1690    5.0120 C   0  0  0  0  0  0  0  0  0  0  0  0
   25.3540   11.5540    3.8880 N   0  0  0  0  0  0  0  0  0  0  0  0
   24.6500   12.0090    2.4280 S   0  0  0  0  0  6  0  0  0  0  0  0
   25.7580   12.1370    1.5000 O   0  0  0  0  0  0  0  0  0  0  0  0
   23.5860   11.0470    2.2100 O   0  0  0  0  0  0  0  0  0  0  0  0
   23.9940   13.4820    2.6810 O   0  0  0  0  0  0  0  0  0  0  0  0
   24.2160   14.2300    3.8120 C   0  0  0  0  0  0  0  0  0  0  0  0
   24.7950   15.5430    3.5480 C   0  0  0  0  0  0  0  0  0  0  0  0
   25.0760   16.4070    4.5440 C   0  0  0  0  0  0  0  0  0  0  0  0
   24.8060   16.0410    5.8920 C   0  0  0  0  0  0  0  0  0  0  0  0
   24.9840   16.6870    7.0220 N   0  0  0  0  0  0  0  0  0  0  0  0
   24.5400   15.8370    8.0120 C   0  0  0  0  0  0  0  0  0  0  0  0
   24.5730   16.1880    9.4260 C   0  0  0  0  0  0  0  0  0  0  0  0
   23.4610   15.8460   10.2430 C   0  0  0  0  0  0  0  0  0  0  0  0
   23.4250   16.1540   11.6100 C   0  0  0  0  0  0  0  0  0  0  0  0
   24.5210   16.8020   12.1340 C   0  0  0  0  0  0  0  0  0  0  0  0
   25.6090   17.1390   11.3510 C   0  0  0  0  0  0  0  0  0  0  0  0
   25.6690   16.8500   10.0000 C   0  0  0  0  0  0  0  0  0  0  0  0
   26.5770   17.8130   12.2130 C   0  0  0  0  0  0  0  0  0  0  0  0
   27.6400   18.2620   11.8290 O   0  0  0  0  0  0  0  0  0  0  0  0
   26.0470   17.8160   13.4760 N   0  0  0  0  0  0  0  0  0  0  0  0
   26.6610   18.5300   14.5840 C   0  0  2  0  0  0  0  0  0  0  0  0
   26.3130   17.9720   15.9610 C   0  0  0  0  0  0  0  0  0  0  0  0
   27.0420   18.7780   17.0270 C   0  0  0  0  0  0  0  0  0  0  0  0
   26.7120   20.2500   16.9250 C   0  0  0  0  0  0  0  0  0  0  0  0
   26.7500   20.9990   17.8950 O   0  0  0  0  0  0  0  0  0  0  0  0
   26.4210   20.7290   15.6700 N   0  0  0  0  0  0  0  0  0  0  0  0
   26.2800   20.0130   14.5030 C   0  0  0  0  0  0  0  0  0  0  0  0
   25.9270   20.5730   13.4670 O   0  0  0  0  0  0  0  0  0  0  0  0
   24.7940   17.2660   13.4920 C   0  0  0  0  0  0  0  0  0  0  0  0
   24.0090   17.1730   14.4170 O   0  0  0  0  0  0  0  0  0  0  0  0
   24.0850   14.6550    7.4650 C   0  0  0  0  0  0  0  0  0  0  0  0
   24.2540   14.7840    6.1090 N   0  0  0  0  0  0  0  0  0  0  0  0
   23.9590   13.8810    5.0890 C   0  0  0  0  0  0  0  0  0  0  0  0
   26.6460   11.8170    4.2120 C   0  0  0  0  0  0  0  0  0  0  0  0
   26.8670   11.5470    5.4810 N   0  0  0  0  0  0  0  0  0  0  0  0
   24.7464    9.1845    8.6779 H   0  0  0  0  0  0  0  0  0  0  0  0
   23.8606    9.4192    7.1330 H   0  0  0  0  0  0  0  0  0  0  0  0
   25.4708    8.6230    7.1330 H   0  0  0  0  0  0  0  0  0  0  0  0
   24.9216   11.5180    7.9428 H   0  0  0  0  0  0  0  0  0  0  0  0
   26.5358   10.6890    7.8511 H   0  0  0  0  0  0  0  0  0  0  0  0
   23.6091   10.9389    5.1128 H   0  0  0  0  0  0  0  0  0  0  0  0
   25.0078   15.8355    2.5092 H   0  0  0  0  0  0  0  0  0  0  0  0
   25.5121   17.3906    4.3154 H   0  0  0  0  0  0  0  0  0  0  0  0
   22.6048   15.3250    9.7897 H   0  0  0  0  0  0  0  0  0  0  0  0
   22.5599   15.8898   12.2360 H   0  0  0  0  0  0  0  0  0  0  0  0
   26.5452   17.1293    9.3965 H   0  0  0  0  0  0  0  0  0  0  0  0
   27.7477   18.3964   14.4781 H   0  0  0  0  0  0  0  0  0  0  0  0
   25.2275   18.0441   16.1235 H   0  0  0  0  0  0  0  0  0  0  0  0
   26.6203   16.9175   16.0207 H   0  0  0  0  0  0  0  0  0  0  0  0
   26.7427   18.4118   18.0201 H   0  0  0  0  0  0  0  0  0  0  0  0
   28.1245   18.6538   16.8761 H   0  0  0  0  0  0  0  0  0  0  0  0
   26.2928   21.7481   15.5935 H   0  0  0  0  0  0  0  0  0  0  0  0
   23.6725   13.7891    8.0036 H   0  0  0  0  0  0  0  0  0  0  0  0
   23.5231   12.8984    5.3222 H   0  0  0  0  0  0  0  0  0  0  0  0
   27.4021   12.2018    3.5119 H   0  0  0  0  0  0  0  0  0  0  0  0
  1  2  1  0
  2  3  1  0
  3  4  2  0
  4  5  1  0
  5  6  1  0
  6  7  2  0
  6  8  2  0
  6  9  1  0
  9 10  1  0
 10 11  1  0
 11 12  2  0
 12 13  1  0
 13 14  2  0
 14 15  1  0
 15 16  1  0
 16 17  2  0
 17 18  1  0
 18 19  2  0
 19 20  1  0
 20 21  2  0
 20 22  1  0
 22 23  2  0
 22 24  1  0
 24 25  1  0
 25 26  1  0
 26 27  1  0
 27 28  1  0
 28 29  2  0
 28 30  1  0
 30 31  1  0
 31 32  2  0
 24 33  1  0
 33 34  2  0
 15 35  2  0
 35 36  1  0
 36 37  1  0
  5 38  1  0
 38 39  2  0
 39  3  1  0
 37 10  2  0
 36 13  1  0
 21 16  1  0
 31 25  1  0
 33 19  1  0
  1 40  1  0
  1 41  1  0
  1 42  1  0
  2 43  1  0
  2 44  1  0
  4 45  1  0
 11 46  1  0
 12 47  1  0
 17 48  1  0
 18 49  1  0
 21 50  1  0
 25 51  1  6
 26 52  1  0
 26 53  1  0
 27 54  1  0
 27 55  1  0
 30 56  1  0
 35 57  1  0
 37 58  1  0
 38 59  1  0
M  END
>  <meeko>  (450) 
{"is_sidechain": [true], "free_energy": -12.52, "intermolecular_energy": 0.0, "internal_energy": -12.52, "cluster_size": 12, "cluster_id": 1, "rank_in_cluster": 1}

>  <_RMSD_MCS_to_ref>  (450) 
1.0855044910086733

$$$$
ligand
     RDKit          3D

 62 67  0  0  0  0  0  0  0  0999 V2000
   24.8710    9.6170    7.7820 C   0  0  0  0  0  0  0  0  0  0  0  0
   25.4240   10.9640    7.3490 C   0  0  0  0  0  0  0  0  0  0  0  0
   24.8450   11.4200    6.0560 C   0  0  0  0  0  0  0  0  0  0  0  0
   24.3800   12.6740    5.7120 C   0  0  0  0  0  0  0  0  0  0  0  0
   24.0170   12.5460    4.4030 N   0  0  0  0  0  0  0  0  0  0  0  0
   23.4050   13.7500    3.3920 S   0  0  0  0  0  6  0  0  0  0  0  0
   22.0010   13.8950    3.7370 O   0  0  0  0  0  0  0  0  0  0  0  0
   23.7880   13.2970    2.0640 O   0  0  0  0  0  0  0  0  0  0  0  0
   24.1860   15.1510    3.6610 O   0  0  0  0  0  0  0  0  0  0  0  0
   25.1840   15.2300    4.6030 C   0  0  0  0  0  0  0  0  0  0  0  0
   24.8270   15.5200    5.8680 N   0  0  0  0  0  0  0  0  0  0  0  0
   25.7890   15.5210    6.8180 C   0  0  0  0  0  0  0  0  0  0  0  0
   25.3130   15.8140    8.1780 C   0  0  0  0  0  0  0  0  0  0  0  0
   24.1520   15.1670    8.6770 C   0  0  0  0  0  0  0  0  0  0  0  0
   23.6860   15.3910    9.9760 C   0  0  0  0  0  0  0  0  0  0  0  0
   24.4110   16.2630   10.7630 C   0  0  0  0  0  0  0  0  0  0  0  0
   25.5530   16.9150   10.3070 C   0  0  0  0  0  0  0  0  0  0  0  0
   26.0130   16.7050    9.0170 C   0  0  0  0  0  0  0  0  0  0  0  0
   26.1030   17.7880   11.3850 C   0  0  0  0  0  0  0  0  0  0  0  0
   25.2340   17.4880   12.5150 N   0  0  0  0  0  0  0  0  0  0  0  0
   25.2750   18.2870   13.7350 C   0  0  2  0  0  0  0  0  0  0  0  0
   25.9390   19.6520   13.5590 C   0  0  0  0  0  0  0  0  0  0  0  0
   25.8720   20.4180   14.8700 C   0  0  0  0  0  0  0  0  0  0  0  0
   26.5110   19.6390   15.9950 C   0  0  0  0  0  0  0  0  0  0  0  0
   26.9410   20.1840   17.0070 O   0  0  0  0  0  0  0  0  0  0  0  0
   26.5140   18.2720   15.8740 N   0  0  0  0  0  0  0  0  0  0  0  0
   25.9350   17.5100   14.8850 C   0  0  0  0  0  0  0  0  0  0  0  0
   25.8730   16.2860   15.0000 O   0  0  0  0  0  0  0  0  0  0  0  0
   24.1730   16.6720   12.1510 C   0  0  0  0  0  0  0  0  0  0  0  0
   23.2080   16.3430   12.8120 O   0  0  0  0  0  0  0  0  0  0  0  0
   27.1190   15.2460    6.5250 C   0  0  0  0  0  0  0  0  0  0  0  0
   27.4850   14.9530    5.2050 C   0  0  0  0  0  0  0  0  0  0  0  0
   28.8190   14.6700    4.8660 C   0  0  0  0  0  0  0  0  0  0  0  0
   29.1720   14.3700    3.5490 C   0  0  0  0  0  0  0  0  0  0  0  0
   28.2000   14.3470    2.5540 C   0  0  0  0  0  0  0  0  0  0  0  0
   26.8710   14.6270    2.8750 C   0  0  0  0  0  0  0  0  0  0  0  0
   26.4950   14.9350    4.2020 C   0  0  0  0  0  0  0  0  0  0  0  0
   24.1980   11.2590    4.0120 C   0  0  0  0  0  0  0  0  0  0  0  0
   24.7170   10.5470    4.9910 N   0  0  0  0  0  0  0  0  0  0  0  0
   24.8498    9.5653    8.8806 H   0  0  0  0  0  0  0  0  0  0  0  0
   23.8505    9.4962    7.3895 H   0  0  0  0  0  0  0  0  0  0  0  0
   25.5122    8.8140    7.3895 H   0  0  0  0  0  0  0  0  0  0  0  0
   25.1902   11.7087    8.1241 H   0  0  0  0  0  0  0  0  0  0  0  0
   26.5101   10.8553    7.2130 H   0  0  0  0  0  0  0  0  0  0  0  0
   24.3168   13.5699    6.3471 H   0  0  0  0  0  0  0  0  0  0  0  0
   23.6046   14.4710    8.0243 H   0  0  0  0  0  0  0  0  0  0  0  0
   22.7807   14.8938   10.3545 H   0  0  0  0  0  0  0  0  0  0  0  0
   26.9109   17.2257    8.6529 H   0  0  0  0  0  0  0  0  0  0  0  0
   27.1486   17.5302   11.6093 H   0  0  0  0  0  0  0  0  0  0  0  0
   26.1182   18.8548   11.1174 H   0  0  0  0  0  0  0  0  0  0  0  0
   24.2241   18.4881   13.9903 H   0  0  0  0  0  0  0  0  0  0  0  0
   26.9907   19.5138   13.2679 H   0  0  0  0  0  0  0  0  0  0  0  0
   25.4142   20.2179   12.7752 H   0  0  0  0  0  0  0  0  0  0  0  0
   26.4000   21.3758   14.7525 H   0  0  0  0  0  0  0  0  0  0  0  0
   24.8140   20.5845   15.1207 H   0  0  0  0  0  0  0  0  0  0  0  0
   27.0097   17.7534   16.6130 H   0  0  0  0  0  0  0  0  0  0  0  0
   27.8772   15.2582    7.3218 H   0  0  0  0  0  0  0  0  0  0  0  0
   29.5936   14.6850    5.6469 H   0  0  0  0  0  0  0  0  0  0  0  0
   30.2204   14.1515    3.2977 H   0  0  0  0  0  0  0  0  0  0  0  0
   28.4783   14.1087    1.5168 H   0  0  0  0  0  0  0  0  0  0  0  0
   26.1061   14.6077    2.0847 H   0  0  0  0  0  0  0  0  0  0  0  0
   23.9463   10.8654    3.0162 H   0  0  0  0  0  0  0  0  0  0  0  0
  1  2  1  0
  2  3  1  0
  3  4  2  0
  4  5  1  0
  5  6  1  0
  6  7  2  0
  6  8  2  0
  6  9  1  0
  9 10  1  0
 10 11  2  0
 11 12  1  0
 12 13  1  0
 13 14  2  0
 14 15  1  0
 15 16  2  0
 16 17  1  0
 17 18  2  0
 17 19  1  0
 19 20  1  0
 20 21  1  0
 21 22  1  0
 22 23  1  0
 23 24  1  0
 24 25  2  0
 24 26  1  0
 26 27  1  0
 27 28  2  0
 20 29  1  0
 29 30  2  0
 12 31  2  0
 31 32  1  0
 32 33  2  0
 33 34  1  0
 34 35  2  0
 35 36  1  0
 36 37  2  0
  5 38  1  0
 38 39  2  0
 39  3  1  0
 37 10  1  0
 18 13  1  0
 27 21  1  0
 37 32  1  0
 29 16  1  0
  1 40  1  0
  1 41  1  0
  1 42  1  0
  2 43  1  0
  2 44  1  0
  4 45  1  0
 14 46  1  0
 15 47  1  0
 18 48  1  0
 19 49  1  0
 19 50  1  0
 21 51  1  1
 22 52  1  0
 22 53  1  0
 23 54  1  0
 23 55  1  0
 26 56  1  0
 31 57  1  0
 33 58  1  0
 34 59  1  0
 35 60  1  0
 36 61  1  0
 38 62  1  0
M  END
>  <meeko>  (451) 
{"is_sidechain": [true], "free_energy": -12.52, "intermolecular_energy": 0.0, "internal_energy": -12.52, "cluster_size": 12, "cluster_id": 1, "rank_in_cluster": 1}

>  <_RMSD_MCS_to_ref>  (451) 
1.7222393775791478

$$$$
ligand
     RDKit          3D

 61 66  0  0  0  0  0  0  0  0999 V2000
   24.8710    9.6160    7.7820 C   0  0  0  0  0  0  0  0  0  0  0  0
   25.4240   10.9650    7.3490 C   0  0  0  0  0  0  0  0  0  0  0  0
   26.8140   11.1840    7.8330 C   0  0  0  0  0  0  0  0  0  0  0  0
   27.2640   12.0560    8.8040 C   0  0  0  0  0  0  0  0  0  0  0  0
   28.6060   11.8210    8.8670 N   0  0  0  0  0  0  0  0  0  0  0  0
   29.7170   12.5010    9.9380 S   0  0  0  0  0  6  0  0  0  0  0  0
   31.0360   12.1430    9.4480 O   0  0  0  0  0  0  0  0  0  0  0  0
   29.2700   12.0270   11.2370 O   0  0  0  0  0  0  0  0  0  0  0  0
   29.5430   14.1200    9.9420 O   0  0  0  0  0  0  0  0  0  0  0  0
   28.4590   14.7010    9.3350 C   0  0  0  0  0  0  0  0  0  0  0  0
   27.3420   14.9120   10.1120 C   0  0  0  0  0  0  0  0  0  0  0  0
   26.2110   15.4630    9.5090 C   0  0  0  0  0  0  0  0  0  0  0  0
   25.0130   15.6840   10.3260 C   0  0  0  0  0  0  0  0  0  0  0  0
   23.7530   15.2120    9.9090 C   0  0  0  0  0  0  0  0  0  0  0  0
   22.5920   15.4280   10.6780 C   0  0  0  0  0  0  0  0  0  0  0  0
   22.6620   16.1230   11.8830 C   0  0  0  0  0  0  0  0  0  0  0  0
   23.9030   16.5780   12.2820 C   0  0  0  0  0  0  0  0  0  0  0  0
   25.0630   16.3730   11.5340 C   0  0  0  0  0  0  0  0  0  0  0  0
   26.2270   17.0060   12.2270 C   0  0  0  0  0  0  0  0  0  0  0  0
   25.6360   17.5020   13.4630 N   0  0  0  0  0  0  0  0  0  0  0  0
   26.3120   18.4350   14.3570 C   0  0  1  0  0  0  0  0  0  0  0  0
   25.5740   19.7640   14.4810 C   0  0  0  0  0  0  0  0  0  0  0  0
   26.3850   20.7120   15.3520 C   0  0  0  0  0  0  0  0  0  0  0  0
   26.6810   20.0990   16.7010 C   0  0  0  0  0  0  0  0  0  0  0  0
   26.7240   20.7650   17.7310 O   0  0  0  0  0  0  0  0  0  0  0  0
   26.9200   18.7480   16.7220 N   0  0  0  0  0  0  0  0  0  0  0  0
   26.5150   17.8460   15.7640 C   0  0  0  0  0  0  0  0  0  0  0  0
   26.3280   16.6680   16.0580 O   0  0  0  0  0  0  0  0  0  0  0  0
   24.2590   17.3360   13.4850 C   0  0  0  0  0  0  0  0  0  0  0  0
   23.4710   17.7300   14.3220 O   0  0  0  0  0  0  0  0  0  0  0  0
   26.2620   15.7760    8.1260 C   0  0  0  0  0  0  0  0  0  0  0  0
   25.1920   16.3470    7.4020 C   0  0  0  0  0  0  0  0  0  0  0  0
   25.3280   16.6120    6.0480 C   0  0  0  0  0  0  0  0  0  0  0  0
   26.5320   16.2980    5.4570 C   0  0  0  0  0  0  0  0  0  0  0  0
   27.5710   15.7530    6.1210 N   0  0  0  0  0  0  0  0  0  0  0  0
   27.4520   15.4990    7.4230 C   0  0  0  0  0  0  0  0  0  0  0  0
   28.5110   14.9620    8.0230 N   0  0  0  0  0  0  0  0  0  0  0  0
   28.9330   10.8570    7.9680 C   0  0  0  0  0  0  0  0  0  0  0  0
   27.8650   10.4490    7.3150 N   0  0  0  0  0  0  0  0  0  0  0  0
   24.8497    9.5640    8.8806 H   0  0  0  0  0  0  0  0  0  0  0  0
   23.8507    9.4948    7.3893 H   0  0  0  0  0  0  0  0  0  0  0  0
   25.5127    8.8135    7.3893 H   0  0  0  0  0  0  0  0  0  0  0  0
   25.4197   11.0135    6.2501 H   0  0  0  0  0  0  0  0  0  0  0  0
   24.7867   11.7475    7.7866 H   0  0  0  0  0  0  0  0  0  0  0  0
   26.6752   12.7754    9.3921 H   0  0  0  0  0  0  0  0  0  0  0  0
   27.3414   14.6527   11.1810 H   0  0  0  0  0  0  0  0  0  0  0  0
   23.6734   14.6614    8.9600 H   0  0  0  0  0  0  0  0  0  0  0  0
   21.6235   15.0450   10.3240 H   0  0  0  0  0  0  0  0  0  0  0  0
   21.7641   16.3023   12.4926 H   0  0  0  0  0  0  0  0  0  0  0  0
   27.0151   16.2669   12.4334 H   0  0  0  0  0  0  0  0  0  0  0  0
   26.7139   17.7920   11.6310 H   0  0  0  0  0  0  0  0  0  0  0  0
   27.2941   18.6171   13.8962 H   0  0  0  0  0  0  0  0  0  0  0  0
   25.4421   20.2053   13.4821 H   0  0  0  0  0  0  0  0  0  0  0  0
   24.5882   19.5960   14.9392 H   0  0  0  0  0  0  0  0  0  0  0  0
   27.3346   20.9402   14.8458 H   0  0  0  0  0  0  0  0  0  0  0  0
   25.7977   21.6289   15.5082 H   0  0  0  0  0  0  0  0  0  0  0  0
   27.4484   18.3764   17.5243 H   0  0  0  0  0  0  0  0  0  0  0  0
   24.2474   16.5823    7.9143 H   0  0  0  0  0  0  0  0  0  0  0  0
   24.5058   17.0561    5.4677 H   0  0  0  0  0  0  0  0  0  0  0  0
   26.6524   16.5035    4.3831 H   0  0  0  0  0  0  0  0  0  0  0  0
   29.9502   10.4703    7.8075 H   0  0  0  0  0  0  0  0  0  0  0  0
  1  2  1  0
  2  3  1  0
  3  4  2  0
  4  5  1  0
  5  6  1  0
  6  7  2  0
  6  8  2  0
  6  9  1  0
  9 10  1  0
 10 11  2  0
 11 12  1  0
 12 13  1  0
 13 14  2  0
 14 15  1  0
 15 16  2  0
 16 17  1  0
 17 18  2  0
 18 19  1  0
 19 20  1  0
 20 21  1  0
 21 22  1  0
 22 23  1  0
 23 24  1  0
 24 25  2  0
 24 26  1  0
 26 27  1  0
 27 28  2  0
 20 29  1  0
 29 30  2  0
 12 31  2  0
 31 32  1  0
 32 33  2  0
 33 34  1  0
 34 35  2  0
 35 36  1  0
 36 37  2  0
  5 38  1  0
 38 39  2  0
 39  3  1  0
 37 10  1  0
 18 13  1  0
 27 21  1  0
 36 31  1  0
 29 17  1  0
  1 40  1  0
  1 41  1  0
  1 42  1  0
  2 43  1  0
  2 44  1  0
  4 45  1  0
 11 46  1  0
 14 47  1  0
 15 48  1  0
 16 49  1  0
 19 50  1  0
 19 51  1  0
 21 52  1  6
 22 53  1  0
 22 54  1  0
 23 55  1  0
 23 56  1  0
 26 57  1  0
 32 58  1  0
 33 59  1  0
 34 60  1  0
 38 61  1  0
M  END
>  <meeko>  (452) 
{"is_sidechain": [true], "free_energy": -12.51, "intermolecular_energy": 0.0, "internal_energy": -12.51, "cluster_size": 13, "cluster_id": 1, "rank_in_cluster": 1}

>  <_RMSD_MCS_to_ref>  (452) 
1.9881627616135122

$$$$
ligand
     RDKit          3D

 61 65  0  0  0  0  0  0  0  0999 V2000
   24.8540    9.4020    7.6050 C   0  0  0  0  0  0  0  0  0  0  0  0
   25.5230   10.7550    7.4270 C   0  0  0  0  0  0  0  0  0  0  0  0
   27.0040   10.6780    7.5710 C   0  0  0  0  0  0  0  0  0  0  0  0
   27.9240   11.7060    7.6420 C   0  0  0  0  0  0  0  0  0  0  0  0
   29.1300   11.0730    7.7420 N   0  0  0  0  0  0  0  0  0  0  0  0
   30.6210   11.8010    7.9910 S   0  0  0  0  0  6  0  0  0  0  0  0
   31.2680   11.8830    6.6980 O   0  0  0  0  0  0  0  0  0  0  0  0
   31.2050   11.1230    9.1310 O   0  0  0  0  0  0  0  0  0  0  0  0
   30.3770   13.4460    8.4880 C   0  0  0  0  0  0  0  0  0  0  0  0
   31.0840   14.0240    9.5230 C   0  0  0  0  0  0  0  0  0  0  0  0
   30.5830   15.6270    9.8340 S   0  0  0  0  0  0  0  0  0  0  0  0
   29.3740   15.5430    8.6330 C   0  0  0  0  0  0  0  0  0  0  0  0
   29.4300   14.3570    7.9140 C   0  0  0  0  0  0  0  0  0  0  0  0
   28.5190   14.1550    6.7380 C   0  0  0  0  0  0  0  0  0  0  0  0
   27.9280   15.5030    6.2710 C   0  0  0  0  0  0  0  0  0  0  0  0
   27.3410   16.2420    7.3970 N   0  0  0  0  0  0  0  0  0  0  0  0
   28.3800   16.6680    8.3900 C   0  0  1  0  0  0  0  0  0  0  0  0
   27.6420   16.9680    9.7310 C   0  0  0  0  0  0  0  0  0  0  0  0
   28.2450   17.2210   10.7690 O   0  0  0  0  0  0  0  0  0  0  0  0
   26.2680   16.8470    9.5730 N   0  0  0  0  0  0  0  0  0  0  0  0
   25.3020   16.6050   10.5570 C   0  0  0  0  0  0  0  0  0  0  0  0
   24.1390   15.8680   10.3590 C   0  0  0  0  0  0  0  0  0  0  0  0
   23.1940   15.7690   11.3850 C   0  0  0  0  0  0  0  0  0  0  0  0
   23.3890   16.4310   12.6000 C   0  0  0  0  0  0  0  0  0  0  0  0
   24.5460   17.1880   12.8090 C   0  0  0  0  0  0  0  0  0  0  0  0
   24.7440   17.9890   14.0880 C   0  0  1  0  0  0  0  0  0  0  0  0
   25.9740   17.4710   14.8420 C   0  0  0  0  0  0  0  0  0  0  0  0
   26.3010   18.3840   16.0110 C   0  0  0  0  0  0  0  0  0  0  0  0
   26.5910   19.7760   15.5090 C   0  0  0  0  0  0  0  0  0  0  0  0
   27.4130   20.5090   16.0490 O   0  0  0  0  0  0  0  0  0  0  0  0
   25.8300   20.1910   14.4460 N   0  0  0  0  0  0  0  0  0  0  0  0
   24.8450   19.4930   13.7910 C   0  0  0  0  0  0  0  0  0  0  0  0
   24.0800   20.0720   13.0200 O   0  0  0  0  0  0  0  0  0  0  0  0
   25.5140   17.2300   11.7910 C   0  0  0  0  0  0  0  0  0  0  0  0
   28.9260    9.7310    7.7700 C   0  0  0  0  0  0  0  0  0  0  0  0
   27.6400    9.4540    7.6650 N   0  0  0  0  0  0  0  0  0  0  0  0
   24.7464    9.1845    8.6779 H   0  0  0  0  0  0  0  0  0  0  0  0
   23.8606    9.4192    7.1330 H   0  0  0  0  0  0  0  0  0  0  0  0
   25.4708    8.6230    7.1330 H   0  0  0  0  0  0  0  0  0  0  0  0
   25.2848   11.1379    6.4237 H   0  0  0  0  0  0  0  0  0  0  0  0
   25.1432   11.4237    8.2135 H   0  0  0  0  0  0  0  0  0  0  0  0
   27.7294   12.7885    7.6224 H   0  0  0  0  0  0  0  0  0  0  0  0
   31.8793   13.5109   10.0835 H   0  0  0  0  0  0  0  0  0  0  0  0
   29.0892   13.7046    5.9121 H   0  0  0  0  0  0  0  0  0  0  0  0
   27.6948   13.4910    7.0376 H   0  0  0  0  0  0  0  0  0  0  0  0
   28.7280   16.1095    5.8214 H   0  0  0  0  0  0  0  0  0  0  0  0
   27.1358   15.3008    5.5351 H   0  0  0  0  0  0  0  0  0  0  0  0
   26.8651   17.0799    7.0332 H   0  0  0  0  0  0  0  0  0  0  0  0
   28.9221   17.5475    8.0124 H   0  0  0  0  0  0  0  0  0  0  0  0
   25.9149   16.9480    8.6107 H   0  0  0  0  0  0  0  0  0  0  0  0
   23.9630   15.3640    9.3972 H   0  0  0  0  0  0  0  0  0  0  0  0
   22.2879   15.1638   11.2341 H   0  0  0  0  0  0  0  0  0  0  0  0
   22.6309   16.3565   13.3936 H   0  0  0  0  0  0  0  0  0  0  0  0
   23.8641   17.8522   14.7338 H   0  0  0  0  0  0  0  0  0  0  0  0
   25.7681   16.4585   15.2193 H   0  0  0  0  0  0  0  0  0  0  0  0
   26.8321   17.4505   14.1540 H   0  0  0  0  0  0  0  0  0  0  0  0
   25.4440   18.4158   16.6999 H   0  0  0  0  0  0  0  0  0  0  0  0
   27.1862   17.9967   16.5367 H   0  0  0  0  0  0  0  0  0  0  0  0
   26.0202   21.1411   14.0967 H   0  0  0  0  0  0  0  0  0  0  0  0
   26.4584   17.7655   11.9680 H   0  0  0  0  0  0  0  0  0  0  0  0
   29.7226    8.9786    7.8668 H   0  0  0  0  0  0  0  0  0  0  0  0
  1  2  1  0
  2  3  1  0
  3  4  2  0
  4  5  1  0
  5  6  1  0
  6  7  2  0
  6  8  2  0
  6  9  1  0
  9 10  2  0
 10 11  1  0
 11 12  1  0
 12 13  2  0
 13 14  1  0
 14 15  1  0
 15 16  1  0
 16 17  1  0
 17 18  1  0
 18 19  2  0
 18 20  1  0
 20 21  1  0
 21 22  2  0
 22 23  1  0
 23 24  2  0
 24 25  1  0
 25 26  1  0
 26 27  1  0
 27 28  1  0
 28 29  1  0
 29 30  2  0
 29 31  1  0
 31 32  1  0
 32 33  2  0
 25 34  2  0
  5 35  1  0
 35 36  2  0
 36  3  1  0
 13  9  1  0
 34 21  1  0
 17 12  1  0
 32 26  1  0
  1 37  1  0
  1 38  1  0
  1 39  1  0
  2 40  1  0
  2 41  1  0
  4 42  1  0
 10 43  1  0
 14 44  1  0
 14 45  1  0
 15 46  1  0
 15 47  1  0
 16 48  1  0
 17 49  1  6
 20 50  1  0
 22 51  1  0
 23 52  1  0
 24 53  1  0
 26 54  1  1
 27 55  1  0
 27 56  1  0
 28 57  1  0
 28 58  1  0
 31 59  1  0
 34 60  1  0
 35 61  1  0
M  END
>  <meeko>  (453) 
{"is_sidechain": [true], "free_energy": -12.5, "intermolecular_energy": 0.0, "internal_energy": -12.5, "cluster_size": 14, "cluster_id": 1, "rank_in_cluster": 1}

>  <_RMSD_MCS_to_ref>  (453) 
0.9161268334679437

$$$$
ligand
     RDKit          3D

 58 62  0  0  0  0  0  0  0  0999 V2000
   24.8540    9.4020    7.6050 C   0  0  0  0  0  0  0  0  0  0  0  0
   25.5230   10.7550    7.4270 C   0  0  0  0  0  0  0  0  0  0  0  0
   25.3150   11.3110    6.0620 C   0  0  0  0  0  0  0  0  0  0  0  0
   24.2290   12.0010    5.5610 C   0  0  0  0  0  0  0  0  0  0  0  0
   24.5590   12.2460    4.2600 N   0  0  0  0  0  0  0  0  0  0  0  0
   23.7280   13.2550    3.2040 S   0  0  0  0  0  6  0  0  0  0  0  0
   22.3290   13.1570    3.5630 O   0  0  0  0  0  0  0  0  0  0  0  0
   24.2220   12.9260    1.8810 O   0  0  0  0  0  0  0  0  0  0  0  0
   24.2930   14.8770    3.6270 C   0  0  0  0  0  0  0  0  0  0  0  0
   24.5540   15.8060    2.6210 C   0  0  0  0  0  0  0  0  0  0  0  0
   24.9810   17.0640    3.0030 C   0  0  0  0  0  0  0  0  0  0  0  0
   25.1570   17.4370    4.2900 N   0  0  0  0  0  0  0  0  0  0  0  0
   24.8770   16.5050    5.2470 C   0  0  0  0  0  0  0  0  0  0  0  0
   25.0760   16.9420    6.6690 C   0  0  0  0  0  0  0  0  0  0  0  0
   25.7690   17.9220    6.9090 O   0  0  0  0  0  0  0  0  0  0  0  0
   24.4070   16.1420    7.5750 N   0  0  0  0  0  0  0  0  0  0  0  0
   24.3740   16.2490    8.9750 C   0  0  0  0  0  0  0  0  0  0  0  0
   23.3340   15.7220    9.7730 C   0  0  0  0  0  0  0  0  0  0  0  0
   23.3440   15.8580   11.1700 C   0  0  0  0  0  0  0  0  0  0  0  0
   24.4110   16.5230   11.7330 C   0  0  0  0  0  0  0  0  0  0  0  0
   25.4300   17.0400   10.9590 C   0  0  0  0  0  0  0  0  0  0  0  0
   25.4430   16.9250    9.5830 C   0  0  0  0  0  0  0  0  0  0  0  0
   26.3840   17.6800   11.8610 C   0  0  0  0  0  0  0  0  0  0  0  0
   27.3910   18.2560   11.4950 O   0  0  0  0  0  0  0  0  0  0  0  0
   25.9160   17.4850   13.1330 N   0  0  0  0  0  0  0  0  0  0  0  0
   26.5250   18.1080   14.2990 C   0  0  2  0  0  0  0  0  0  0  0  0
   25.9230   17.6710   15.6320 C   0  0  0  0  0  0  0  0  0  0  0  0
   26.6680   18.3600   16.7660 C   0  0  0  0  0  0  0  0  0  0  0  0
   26.6370   19.8630   16.6100 C   0  0  0  0  0  0  0  0  0  0  0  0
   26.7090   20.6240   17.5690 O   0  0  0  0  0  0  0  0  0  0  0  0
   26.5830   20.3470   15.3250 N   0  0  0  0  0  0  0  0  0  0  0  0
   26.4440   19.6320   14.1570 C   0  0  0  0  0  0  0  0  0  0  0  0
   26.3260   20.2140   13.0800 O   0  0  0  0  0  0  0  0  0  0  0  0
   24.7100   16.8370   13.1280 C   0  0  0  0  0  0  0  0  0  0  0  0
   23.9800   16.5690   14.0610 O   0  0  0  0  0  0  0  0  0  0  0  0
   24.4400   15.2200    4.9690 C   0  0  0  0  0  0  0  0  0  0  0  0
   25.8040   11.7620    4.0170 C   0  0  0  0  0  0  0  0  0  0  0  0
   26.2910   11.1800    5.0930 N   0  0  0  0  0  0  0  0  0  0  0  0
   24.7464    9.1845    8.6779 H   0  0  0  0  0  0  0  0  0  0  0  0
   23.8606    9.4192    7.1330 H   0  0  0  0  0  0  0  0  0  0  0  0
   25.4708    8.6230    7.1330 H   0  0  0  0  0  0  0  0  0  0  0  0
   25.1036   11.4569    8.1629 H   0  0  0  0  0  0  0  0  0  0  0  0
   26.6045   10.6184    7.5743 H   0  0  0  0  0  0  0  0  0  0  0  0
   23.3081   12.2877    6.0900 H   0  0  0  0  0  0  0  0  0  0  0  0
   24.4246   15.5469    1.5598 H   0  0  0  0  0  0  0  0  0  0  0  0
   25.1892   17.8030    2.2152 H   0  0  0  0  0  0  0  0  0  0  0  0
   23.8619   15.3668    7.1716 H   0  0  0  0  0  0  0  0  0  0  0  0
   22.4989   15.1940    9.2894 H   0  0  0  0  0  0  0  0  0  0  0  0
   22.5324   15.4500   11.7903 H   0  0  0  0  0  0  0  0  0  0  0  0
   26.2628   17.3486    8.9842 H   0  0  0  0  0  0  0  0  0  0  0  0
   27.5713   17.7695   14.3238 H   0  0  0  0  0  0  0  0  0  0  0  0
   24.8600   17.9520   15.6656 H   0  0  0  0  0  0  0  0  0  0  0  0
   26.0134   16.5799   15.7389 H   0  0  0  0  0  0  0  0  0  0  0  0
   26.1956   18.0891   17.7218 H   0  0  0  0  0  0  0  0  0  0  0  0
   27.7171   18.0301   16.7431 H   0  0  0  0  0  0  0  0  0  0  0  0
   26.6554   21.3694   15.2235 H   0  0  0  0  0  0  0  0  0  0  0  0
   24.2189   14.5022    5.7727 H   0  0  0  0  0  0  0  0  0  0  0  0
   26.3320   11.8445    3.0556 H   0  0  0  0  0  0  0  0  0  0  0  0
  1  2  1  0
  2  3  1  0
  3  4  2  0
  4  5  1  0
  5  6  1  0
  6  7  2  0
  6  8  2  0
  6  9  1  0
  9 10  2  0
 10 11  1  0
 11 12  2  0
 12 13  1  0
 13 14  1  0
 14 15  2  0
 14 16  1  0
 16 17  1  0
 17 18  2  0
 18 19  1  0
 19 20  2  0
 20 21  1  0
 21 22  2  0
 21 23  1  0
 23 24  2  0
 23 25  1  0
 25 26  1  0
 26 27  1  0
 27 28  1  0
 28 29  1  0
 29 30  2  0
 29 31  1  0
 31 32  1  0
 32 33  2  0
 25 34  1  0
 34 35  2  0
 13 36  2  0
  5 37  1  0
 37 38  2  0
 38  3  1  0
 36  9  1  0
 22 17  1  0
 32 26  1  0
 34 20  1  0
  1 39  1  0
  1 40  1  0
  1 41  1  0
  2 42  1  0
  2 43  1  0
  4 44  1  0
 10 45  1  0
 11 46  1  0
 16 47  1  0
 18 48  1  0
 19 49  1  0
 22 50  1  0
 26 51  1  1
 27 52  1  0
 27 53  1  0
 28 54  1  0
 28 55  1  0
 31 56  1  0
 36 57  1  0
 37 58  1  0
M  END
>  <meeko>  (454) 
{"is_sidechain": [true], "free_energy": -12.5, "intermolecular_energy": 0.0, "internal_energy": -12.5, "cluster_size": 19, "cluster_id": 1, "rank_in_cluster": 1}

>  <_RMSD_MCS_to_ref>  (454) 
1.115261740579312

$$$$
ligand
     RDKit          3D

 60 65  0  0  0  0  0  0  0  0999 V2000
   24.8710    9.6160    7.7820 C   0  0  0  0  0  0  0  0  0  0  0  0
   25.4240   10.9650    7.3490 C   0  0  0  0  0  0  0  0  0  0  0  0
   25.3140   11.1710    5.8790 C   0  0  0  0  0  0  0  0  0  0  0  0
   26.3010   11.5020    4.9710 C   0  0  0  0  0  0  0  0  0  0  0  0
   25.6540   11.5250    3.7680 N   0  0  0  0  0  0  0  0  0  0  0  0
   26.2910   12.1060    2.3200 S   0  0  0  0  0  6  0  0  0  0  0  0
   25.3170   11.7380    1.3090 O   0  0  0  0  0  0  0  0  0  0  0  0
   27.6500   11.6020    2.2820 O   0  0  0  0  0  0  0  0  0  0  0  0
   26.3260   13.7300    2.4610 O   0  0  0  0  0  0  0  0  0  0  0  0
   26.2730   14.3920    3.6650 C   0  0  0  0  0  0  0  0  0  0  0  0
   27.2390   15.4780    3.7850 C   0  0  0  0  0  0  0  0  0  0  0  0
   27.3250   16.2310    4.8990 C   0  0  0  0  0  0  0  0  0  0  0  0
   26.4550   15.9690    5.9950 C   0  0  0  0  0  0  0  0  0  0  0  0
   26.3380   16.5460    7.1700 N   0  0  0  0  0  0  0  0  0  0  0  0
   25.3250   15.8680    7.8190 C   0  0  0  0  0  0  0  0  0  0  0  0
   24.8830   16.2120    9.1650 C   0  0  0  0  0  0  0  0  0  0  0  0
   23.7150   15.6510    9.7330 C   0  0  0  0  0  0  0  0  0  0  0  0
   23.3030   15.9870   11.0280 C   0  0  0  0  0  0  0  0  0  0  0  0
   24.0770   16.8900   11.7270 C   0  0  0  0  0  0  0  0  0  0  0  0
   25.2330   17.4570   11.1980 C   0  0  0  0  0  0  0  0  0  0  0  0
   25.6460   17.1260    9.9170 C   0  0  0  0  0  0  0  0  0  0  0  0
   25.8560   18.3830   12.1890 C   0  0  0  0  0  0  0  0  0  0  0  0
   24.9280   18.3070   13.3120 N   0  0  0  0  0  0  0  0  0  0  0  0
   25.1960   18.8750   14.6310 C   0  0  1  0  0  0  0  0  0  0  0  0
   26.3160   18.1050   15.3350 C   0  0  0  0  0  0  0  0  0  0  0  0
   26.4870   18.6280   16.7510 C   0  0  0  0  0  0  0  0  0  0  0  0
   26.7500   20.1140   16.7570 C   0  0  0  0  0  0  0  0  0  0  0  0
   27.4490   20.6560   17.6090 O   0  0  0  0  0  0  0  0  0  0  0  0
   26.1390   20.8490   15.7740 N   0  0  0  0  0  0  0  0  0  0  0  0
   25.5260   20.3760   14.6360 C   0  0  0  0  0  0  0  0  0  0  0  0
   25.2490   21.1500   13.7230 O   0  0  0  0  0  0  0  0  0  0  0  0
   23.9000   17.4050   13.0890 C   0  0  0  0  0  0  0  0  0  0  0  0
   23.0290   17.0570   13.8630 O   0  0  0  0  0  0  0  0  0  0  0  0
   24.8260   14.8650    7.0140 C   0  0  0  0  0  0  0  0  0  0  0  0
   25.5480   14.9290    5.8490 N   0  0  0  0  0  0  0  0  0  0  0  0
   25.4490   14.1410    4.7020 C   0  0  0  0  0  0  0  0  0  0  0  0
   24.3310   11.3020    3.9710 C   0  0  0  0  0  0  0  0  0  0  0  0
   24.0930   11.0590    5.2420 N   0  0  0  0  0  0  0  0  0  0  0  0
   24.8497    9.5640    8.8806 H   0  0  0  0  0  0  0  0  0  0  0  0
   23.8507    9.4948    7.3893 H   0  0  0  0  0  0  0  0  0  0  0  0
   25.5127    8.8135    7.3893 H   0  0  0  0  0  0  0  0  0  0  0  0
   24.8617   11.7596    7.8613 H   0  0  0  0  0  0  0  0  0  0  0  0
   26.4908   10.9945    7.6157 H   0  0  0  0  0  0  0  0  0  0  0  0
   27.3642   11.7014    5.1708 H   0  0  0  0  0  0  0  0  0  0  0  0
   27.9155   15.6880    2.9435 H   0  0  0  0  0  0  0  0  0  0  0  0
   28.0635   17.0439    4.9613 H   0  0  0  0  0  0  0  0  0  0  0  0
   23.1191   14.9369    9.1457 H   0  0  0  0  0  0  0  0  0  0  0  0
   22.3970   15.5479   11.4711 H   0  0  0  0  0  0  0  0  0  0  0  0
   26.5581   17.5715    9.4932 H   0  0  0  0  0  0  0  0  0  0  0  0
   26.8603   18.0398   12.4782 H   0  0  0  0  0  0  0  0  0  0  0  0
   26.0018   19.4040   11.8065 H   0  0  0  0  0  0  0  0  0  0  0  0
   24.2473   18.7695   15.1777 H   0  0  0  0  0  0  0  0  0  0  0  0
   26.0592   17.0359   15.3688 H   0  0  0  0  0  0  0  0  0  0  0  0
   27.2560   18.2423   14.7805 H   0  0  0  0  0  0  0  0  0  0  0  0
   25.5692   18.4240   17.3219 H   0  0  0  0  0  0  0  0  0  0  0  0
   27.3494   18.1203   17.2076 H   0  0  0  0  0  0  0  0  0  0  0  0
   26.1387   21.8711   15.9016 H   0  0  0  0  0  0  0  0  0  0  0  0
   24.0170   14.1600    7.2559 H   0  0  0  0  0  0  0  0  0  0  0  0
   24.7104   13.3279    4.6447 H   0  0  0  0  0  0  0  0  0  0  0  0
   23.5641   11.3216    3.1826 H   0  0  0  0  0  0  0  0  0  0  0  0
  1  2  1  0
  2  3  1  0
  3  4  2  0
  4  5  1  0
  5  6  1  0
  6  7  2  0
  6  8  2  0
  6  9  1  0
  9 10  1  0
 10 11  1  0
 11 12  2  0
 12 13  1  0
 13 14  2  0
 14 15  1  0
 15 16  1  0
 16 17  2  0
 17 18  1  0
 18 19  2  0
 19 20  1  0
 20 21  2  0
 20 22  1  0
 22 23  1  0
 23 24  1  0
 24 25  1  0
 25 26  1  0
 26 27  1  0
 27 28  2  0
 27 29  1  0
 29 30  1  0
 30 31  2  0
 23 32  1  0
 32 33  2  0
 15 34  2  0
 34 35  1  0
 35 36  1  0
  5 37  1  0
 37 38  2  0
 38  3  1  0
 36 10  2  0
 35 13  1  0
 21 16  1  0
 30 24  1  0
 32 19  1  0
  1 39  1  0
  1 40  1  0
  1 41  1  0
  2 42  1  0
  2 43  1  0
  4 44  1  0
 11 45  1  0
 12 46  1  0
 17 47  1  0
 18 48  1  0
 21 49  1  0
 22 50  1  0
 22 51  1  0
 24 52  1  1
 25 53  1  0
 25 54  1  0
 26 55  1  0
 26 56  1  0
 29 57  1  0
 34 58  1  0
 36 59  1  0
 37 60  1  0
M  END
>  <meeko>  (455) 
{"is_sidechain": [true], "free_energy": -12.5, "intermolecular_energy": 0.0, "internal_energy": -12.5, "cluster_size": 20, "cluster_id": 1, "rank_in_cluster": 1}

>  <_RMSD_MCS_to_ref>  (455) 
0.7609308011971435

$$$$
ligand
     RDKit          3D

 59 64  0  0  0  0  0  0  0  0999 V2000
   24.8540    9.4020    7.6050 C   0  0  0  0  0  0  0  0  0  0  0  0
   25.5230   10.7550    7.4270 C   0  0  0  0  0  0  0  0  0  0  0  0
   25.0440   11.4640    6.2090 C   0  0  0  0  0  0  0  0  0  0  0  0
   25.3330   12.7450    5.7800 C   0  0  0  0  0  0  0  0  0  0  0  0
   24.6230   12.8780    4.6210 N   0  0  0  0  0  0  0  0  0  0  0  0
   24.7350   14.1430    3.5300 S   0  0  0  0  0  6  0  0  0  0  0  0
   23.5380   14.9410    3.6830 O   0  0  0  0  0  0  0  0  0  0  0  0
   25.1400   13.5550    2.2690 O   0  0  0  0  0  0  0  0  0  0  0  0
   26.0600   15.1880    3.9720 C   0  0  0  0  0  0  0  0  0  0  0  0
   26.9960   15.5110    3.0250 N   0  0  0  0  0  0  0  0  0  0  0  0
   28.0040   16.2860    3.4650 N   0  0  0  0  0  0  0  0  0  0  0  0
   27.7180   16.5180    4.7540 C   0  0  0  0  0  0  0  0  0  0  0  0
   28.4190   17.2680    5.7090 C   0  0  0  0  0  0  0  0  0  0  0  0
   27.8100   17.2790    6.9860 C   0  0  0  0  0  0  0  0  0  0  0  0
   26.5820   16.5990    7.3090 C   0  0  0  0  0  0  0  0  0  0  0  0
   26.0520   16.6830    8.6820 C   0  0  0  0  0  0  0  0  0  0  0  0
   25.0280   15.7980    9.1080 C   0  0  0  0  0  0  0  0  0  0  0  0
   24.5050   15.8570   10.4030 C   0  0  0  0  0  0  0  0  0  0  0  0
   25.0210   16.8150   11.2500 C   0  0  0  0  0  0  0  0  0  0  0  0
   26.0280   17.6960   10.8660 C   0  0  0  0  0  0  0  0  0  0  0  0
   26.5540   17.6400    9.5860 C   0  0  0  0  0  0  0  0  0  0  0  0
   26.3850   18.5870   12.0070 C   0  0  0  0  0  0  0  0  0  0  0  0
   25.4160   18.2090   13.0270 N   0  0  0  0  0  0  0  0  0  0  0  0
   25.5390   18.6820   14.4010 C   0  0  1  0  0  0  0  0  0  0  0  0
   26.6620   18.0070   15.1870 C   0  0  0  0  0  0  0  0  0  0  0  0
   26.6600   18.5280   16.6170 C   0  0  0  0  0  0  0  0  0  0  0  0
   26.7940   20.0320   16.6520 C   0  0  0  0  0  0  0  0  0  0  0  0
   27.2230   20.6280   17.6370 O   0  0  0  0  0  0  0  0  0  0  0  0
   26.3300   20.7190   15.5580 N   0  0  0  0  0  0  0  0  0  0  0  0
   25.6880   20.2110   14.4520 C   0  0  0  0  0  0  0  0  0  0  0  0
   25.1830   20.9710   13.6250 O   0  0  0  0  0  0  0  0  0  0  0  0
   24.6690   17.1040   12.6450 C   0  0  0  0  0  0  0  0  0  0  0  0
   23.8780   16.4590   13.3050 O   0  0  0  0  0  0  0  0  0  0  0  0
   25.8650   15.8440    6.3430 C   0  0  0  0  0  0  0  0  0  0  0  0
   26.4900   15.8430    5.0980 C   0  0  0  0  0  0  0  0  0  0  0  0
   23.9700   11.7170    4.3620 C   0  0  0  0  0  0  0  0  0  0  0  0
   24.2010   10.8370    5.3130 N   0  0  0  0  0  0  0  0  0  0  0  0
   24.7464    9.1845    8.6779 H   0  0  0  0  0  0  0  0  0  0  0  0
   23.8606    9.4192    7.1330 H   0  0  0  0  0  0  0  0  0  0  0  0
   25.4708    8.6230    7.1330 H   0  0  0  0  0  0  0  0  0  0  0  0
   25.3043   11.3768    8.3077 H   0  0  0  0  0  0  0  0  0  0  0  0
   26.6040   10.5848    7.3151 H   0  0  0  0  0  0  0  0  0  0  0  0
   25.9857   13.4879    6.2617 H   0  0  0  0  0  0  0  0  0  0  0  0
   26.9328   15.1852    2.0499 H   0  0  0  0  0  0  0  0  0  0  0  0
   29.3562   17.7990    5.4859 H   0  0  0  0  0  0  0  0  0  0  0  0
   28.3082   17.8454    7.7866 H   0  0  0  0  0  0  0  0  0  0  0  0
   24.6371   15.0489    8.4037 H   0  0  0  0  0  0  0  0  0  0  0  0
   23.7141   15.1673   10.7329 H   0  0  0  0  0  0  0  0  0  0  0  0
   27.3519   18.3325    9.2797 H   0  0  0  0  0  0  0  0  0  0  0  0
   27.4136   18.4000   12.3490 H   0  0  0  0  0  0  0  0  0  0  0  0
   26.3532   19.6563   11.7511 H   0  0  0  0  0  0  0  0  0  0  0  0
   24.5999   18.3948   14.8966 H   0  0  0  0  0  0  0  0  0  0  0  0
   26.5036   16.9185   15.1925 H   0  0  0  0  0  0  0  0  0  0  0  0
   27.6293   18.2328   14.7144 H   0  0  0  0  0  0  0  0  0  0  0  0
   25.7153   18.2408   17.1019 H   0  0  0  0  0  0  0  0  0  0  0  0
   27.5181   18.0900   17.1479 H   0  0  0  0  0  0  0  0  0  0  0  0
   26.4806   21.7379   15.5659 H   0  0  0  0  0  0  0  0  0  0  0  0
   24.9218   15.3189    6.5543 H   0  0  0  0  0  0  0  0  0  0  0  0
   23.3366   11.5367    3.4810 H   0  0  0  0  0  0  0  0  0  0  0  0
  1  2  1  0
  2  3  1  0
  3  4  2  0
  4  5  1  0
  5  6  1  0
  6  7  2  0
  6  8  2  0
  6  9  1  0
  9 10  1  0
 10 11  1  0
 11 12  2  0
 12 13  1  0
 13 14  2  0
 14 15  1  0
 15 16  1  0
 16 17  2  0
 17 18  1  0
 18 19  2  0
 19 20  1  0
 20 21  2  0
 20 22  1  0
 22 23  1  0
 23 24  1  0
 24 25  1  0
 25 26  1  0
 26 27  1  0
 27 28  2  0
 27 29  1  0
 29 30  1  0
 30 31  2  0
 23 32  1  0
 32 33  2  0
 15 34  2  0
 34 35  1  0
  5 36  1  0
 36 37  2  0
 37  3  1  0
 35  9  2  0
 35 12  1  0
 21 16  1  0
 30 24  1  0
 32 19  1  0
  1 38  1  0
  1 39  1  0
  1 40  1  0
  2 41  1  0
  2 42  1  0
  4 43  1  0
 10 44  1  0
 13 45  1  0
 14 46  1  0
 17 47  1  0
 18 48  1  0
 21 49  1  0
 22 50  1  0
 22 51  1  0
 24 52  1  1
 25 53  1  0
 25 54  1  0
 26 55  1  0
 26 56  1  0
 29 57  1  0
 34 58  1  0
 36 59  1  0
M  END
>  <meeko>  (456) 
{"is_sidechain": [true], "free_energy": -12.49, "intermolecular_energy": 0.0, "internal_energy": -12.49, "cluster_size": 12, "cluster_id": 1, "rank_in_cluster": 1}

>  <_RMSD_MCS_to_ref>  (456) 
0.6463010134604454

$$$$
ligand
     RDKit          3D

 60 65  0  0  0  0  0  0  0  0999 V2000
   24.8540    9.4020    7.6050 C   0  0  0  0  0  0  0  0  0  0  0  0
   25.5230   10.7550    7.4270 C   0  0  0  0  0  0  0  0  0  0  0  0
   25.7950   11.0640    5.9970 C   0  0  0  0  0  0  0  0  0  0  0  0
   26.9720   11.4780    5.4050 C   0  0  0  0  0  0  0  0  0  0  0  0
   26.6650   11.5730    4.0780 N   0  0  0  0  0  0  0  0  0  0  0  0
   27.6360   12.2680    2.8900 S   0  0  0  0  0  6  0  0  0  0  0  0
   28.9880   11.8620    3.2300 O   0  0  0  0  0  0  0  0  0  0  0  0
   27.0220   11.8850    1.6330 O   0  0  0  0  0  0  0  0  0  0  0  0
   27.4990   13.8820    3.0820 O   0  0  0  0  0  0  0  0  0  0  0  0
   26.8160   14.4720    4.1190 C   0  0  0  0  0  0  0  0  0  0  0  0
   25.7460   15.3650    3.6880 C   0  0  0  0  0  0  0  0  0  0  0  0
   24.9750   16.0260    4.5740 C   0  0  0  0  0  0  0  0  0  0  0  0
   25.2010   15.8570    5.9680 C   0  0  0  0  0  0  0  0  0  0  0  0
   24.6020   16.3760    7.0170 N   0  0  0  0  0  0  0  0  0  0  0  0
   25.2470   15.8470    8.1160 C   0  0  0  0  0  0  0  0  0  0  0  0
   24.8760   16.1750    9.4860 C   0  0  0  0  0  0  0  0  0  0  0  0
   23.7590   15.5260   10.0700 C   0  0  0  0  0  0  0  0  0  0  0  0
   23.3490   15.7920   11.3840 C   0  0  0  0  0  0  0  0  0  0  0  0
   24.0670   16.7200   12.1110 C   0  0  0  0  0  0  0  0  0  0  0  0
   25.1630   17.3590   11.5350 C   0  0  0  0  0  0  0  0  0  0  0  0
   25.5920   17.1120   10.2430 C   0  0  0  0  0  0  0  0  0  0  0  0
   25.7260   18.2800   12.5280 C   0  0  0  0  0  0  0  0  0  0  0  0
   26.7240   18.9570   12.3660 O   0  0  0  0  0  0  0  0  0  0  0  0
   24.9050   18.2180   13.6440 N   0  0  0  0  0  0  0  0  0  0  0  0
   25.2890   18.8140   14.9180 C   0  0  1  0  0  0  0  0  0  0  0  0
   26.4250   18.0560   15.5980 C   0  0  0  0  0  0  0  0  0  0  0  0
   26.7050   18.6790   16.9580 C   0  0  0  0  0  0  0  0  0  0  0  0
   27.0070   20.1530   16.8300 C   0  0  0  0  0  0  0  0  0  0  0  0
   27.8260   20.7210   17.5470 O   0  0  0  0  0  0  0  0  0  0  0  0
   26.3030   20.8430   15.8770 N   0  0  0  0  0  0  0  0  0  0  0  0
   25.6900   20.2920   14.7740 C   0  0  0  0  0  0  0  0  0  0  0  0
   25.5070   20.9690   13.7640 O   0  0  0  0  0  0  0  0  0  0  0  0
   23.8800   17.1900   13.5140 C   0  0  0  0  0  0  0  0  0  0  0  0
   26.2550   14.9940    7.7160 C   0  0  0  0  0  0  0  0  0  0  0  0
   26.2270   14.9990    6.3440 N   0  0  0  0  0  0  0  0  0  0  0  0
   27.0310   14.3100    5.4400 C   0  0  0  0  0  0  0  0  0  0  0  0
   25.3440   11.3090    3.9080 C   0  0  0  0  0  0  0  0  0  0  0  0
   24.7900   10.9720    5.0530 N   0  0  0  0  0  0  0  0  0  0  0  0
   24.7464    9.1845    8.6779 H   0  0  0  0  0  0  0  0  0  0  0  0
   23.8606    9.4192    7.1330 H   0  0  0  0  0  0  0  0  0  0  0  0
   25.4708    8.6230    7.1330 H   0  0  0  0  0  0  0  0  0  0  0  0
   24.8633   11.5332    7.8383 H   0  0  0  0  0  0  0  0  0  0  0  0
   26.4872   10.7270    7.9557 H   0  0  0  0  0  0  0  0  0  0  0  0
   27.9368   11.6842    5.8916 H   0  0  0  0  0  0  0  0  0  0  0  0
   25.5637   15.5024    2.6119 H   0  0  0  0  0  0  0  0  0  0  0  0
   24.1748   16.6930    4.2207 H   0  0  0  0  0  0  0  0  0  0  0  0
   23.1971   14.7916    9.4742 H   0  0  0  0  0  0  0  0  0  0  0  0
   22.4815   15.2768   11.8223 H   0  0  0  0  0  0  0  0  0  0  0  0
   26.4654   17.6334    9.8243 H   0  0  0  0  0  0  0  0  0  0  0  0
   24.3908   18.7471   15.5495 H   0  0  0  0  0  0  0  0  0  0  0  0
   26.1366   17.0026   15.7292 H   0  0  0  0  0  0  0  0  0  0  0  0
   27.3295   18.1125   14.9746 H   0  0  0  0  0  0  0  0  0  0  0  0
   25.8226   18.5478   17.6016 H   0  0  0  0  0  0  0  0  0  0  0  0
   27.5817   18.1800   17.3966 H   0  0  0  0  0  0  0  0  0  0  0  0
   26.2259   21.8631   15.9967 H   0  0  0  0  0  0  0  0  0  0  0  0
   24.0439   16.3727   14.2318 H   0  0  0  0  0  0  0  0  0  0  0  0
   22.8638   17.5567   13.7209 H   0  0  0  0  0  0  0  0  0  0  0  0
   26.9399   14.4268    8.3634 H   0  0  0  0  0  0  0  0  0  0  0  0
   27.8295   13.6436    5.7982 H   0  0  0  0  0  0  0  0  0  0  0  0
   24.8114   11.3685    2.9474 H   0  0  0  0  0  0  0  0  0  0  0  0
  1  2  1  0
  2  3  1  0
  3  4  2  0
  4  5  1  0
  5  6  1  0
  6  7  2  0
  6  8  2  0
  6  9  1  0
  9 10  1  0
 10 11  1  0
 11 12  2  0
 12 13  1  0
 13 14  2  0
 14 15  1  0
 15 16  1  0
 16 17  2  0
 17 18  1  0
 18 19  2  0
 19 20  1  0
 20 21  2  0
 20 22  1  0
 22 23  2  0
 22 24  1  0
 24 25  1  0
 25 26  1  0
 26 27  1  0
 27 28  1  0
 28 29  2  0
 28 30  1  0
 30 31  1  0
 31 32  2  0
 24 33  1  0
 15 34  2  0
 34 35  1  0
 35 36  1  0
  5 37  1  0
 37 38  2  0
 38  3  1  0
 36 10  2  0
 35 13  1  0
 21 16  1  0
 31 25  1  0
 33 19  1  0
  1 39  1  0
  1 40  1  0
  1 41  1  0
  2 42  1  0
  2 43  1  0
  4 44  1  0
 11 45  1  0
 12 46  1  0
 17 47  1  0
 18 48  1  0
 21 49  1  0
 25 50  1  1
 26 51  1  0
 26 52  1  0
 27 53  1  0
 27 54  1  0
 30 55  1  0
 33 56  1  0
 33 57  1  0
 34 58  1  0
 36 59  1  0
 37 60  1  0
M  END
>  <meeko>  (457) 
{"is_sidechain": [true], "free_energy": -12.49, "intermolecular_energy": 0.0, "internal_energy": -12.49, "cluster_size": 20, "cluster_id": 1, "rank_in_cluster": 1}

>  <_RMSD_MCS_to_ref>  (457) 
0.6609788196304024

$$$$
ligand
     RDKit          3D

 59 63  0  0  0  0  0  0  0  0999 V2000
   24.8540    9.4020    7.6050 C   0  0  0  0  0  0  0  0  0  0  0  0
   25.5230   10.7550    7.4270 C   0  0  0  0  0  0  0  0  0  0  0  0
   25.0240   11.4760    6.2250 C   0  0  0  0  0  0  0  0  0  0  0  0
   25.4090   12.7060    5.7270 C   0  0  0  0  0  0  0  0  0  0  0  0
   24.6400   12.8690    4.6090 N   0  0  0  0  0  0  0  0  0  0  0  0
   24.5410   14.2700    3.6900 S   0  0  0  0  0  6  0  0  0  0  0  0
   24.1970   13.8890    2.3350 O   0  0  0  0  0  0  0  0  0  0  0  0
   23.6770   15.1470    4.4610 O   0  0  0  0  0  0  0  0  0  0  0  0
   26.1630   14.9850    3.6750 C   0  0  0  0  0  0  0  0  0  0  0  0
   27.0170   14.6870    2.6020 C   0  0  0  0  0  0  0  0  0  0  0  0
   28.3280   15.1690    2.5960 C   0  0  0  0  0  0  0  0  0  0  0  0
   28.7970   15.9390    3.6590 C   0  0  0  0  0  0  0  0  0  0  0  0
   27.9560   16.2280    4.7350 C   0  0  0  0  0  0  0  0  0  0  0  0
   26.6400   15.7410    4.7500 C   0  0  0  0  0  0  0  0  0  0  0  0
   25.7780   16.1170    5.8850 C   0  0  0  0  0  0  0  0  0  0  0  0
   24.7950   16.7940    5.6260 O   0  0  0  0  0  0  0  0  0  0  0  0
   26.2050   15.6520    7.1110 N   0  0  0  0  0  0  0  0  0  0  0  0
   25.5780   15.8490    8.3590 C   0  0  0  0  0  0  0  0  0  0  0  0
   24.3730   15.2160    8.7390 C   0  0  0  0  0  0  0  0  0  0  0  0
   23.7910   15.4420    9.9940 C   0  0  0  0  0  0  0  0  0  0  0  0
   24.4360   16.3140   10.8440 C   0  0  0  0  0  0  0  0  0  0  0  0
   25.6120   16.9390   10.4790 C   0  0  0  0  0  0  0  0  0  0  0  0
   26.2100   16.7300    9.2510 C   0  0  0  0  0  0  0  0  0  0  0  0
   26.0250   17.7830   11.5960 C   0  0  0  0  0  0  0  0  0  0  0  0
   27.0350   18.4600   11.6020 O   0  0  0  0  0  0  0  0  0  0  0  0
   25.0660   17.6540   12.5650 N   0  0  0  0  0  0  0  0  0  0  0  0
   25.2040   18.2350   13.8920 C   0  0  1  0  0  0  0  0  0  0  0  0
   26.3120   17.6140   14.7370 C   0  0  0  0  0  0  0  0  0  0  0  0
   26.3280   18.2800   16.1060 C   0  0  0  0  0  0  0  0  0  0  0  0
   26.4940   19.7780   15.9870 C   0  0  0  0  0  0  0  0  0  0  0  0
   27.0070   20.4520   16.8740 O   0  0  0  0  0  0  0  0  0  0  0  0
   25.9850   20.3640   14.8550 N   0  0  0  0  0  0  0  0  0  0  0  0
   25.4230   19.7460   13.7600 C   0  0  0  0  0  0  0  0  0  0  0  0
   25.0740   20.4060   12.7830 O   0  0  0  0  0  0  0  0  0  0  0  0
   24.1040   16.7520   12.1980 C   0  0  0  0  0  0  0  0  0  0  0  0
   23.1520   16.3450   12.8340 O   0  0  0  0  0  0  0  0  0  0  0  0
   23.8000   11.8090    4.4890 C   0  0  0  0  0  0  0  0  0  0  0  0
   24.0190   10.9330    5.4480 N   0  0  0  0  0  0  0  0  0  0  0  0
   24.7464    9.1845    8.6779 H   0  0  0  0  0  0  0  0  0  0  0  0
   23.8606    9.4192    7.1330 H   0  0  0  0  0  0  0  0  0  0  0  0
   25.4708    8.6230    7.1330 H   0  0  0  0  0  0  0  0  0  0  0  0
   25.3220   11.3692    8.3171 H   0  0  0  0  0  0  0  0  0  0  0  0
   26.6013   10.5831    7.2937 H   0  0  0  0  0  0  0  0  0  0  0  0
   26.1617   13.3958    6.1364 H   0  0  0  0  0  0  0  0  0  0  0  0
   26.6535   14.0731    1.7647 H   0  0  0  0  0  0  0  0  0  0  0  0
   28.9924   14.9402    1.7497 H   0  0  0  0  0  0  0  0  0  0  0  0
   29.8293   16.3187    3.6500 H   0  0  0  0  0  0  0  0  0  0  0  0
   28.3254   16.8383    5.5723 H   0  0  0  0  0  0  0  0  0  0  0  0
   27.0756   15.1015    7.1159 H   0  0  0  0  0  0  0  0  0  0  0  0
   23.8805   14.5303    8.0338 H   0  0  0  0  0  0  0  0  0  0  0  0
   22.8561   14.9429   10.2888 H   0  0  0  0  0  0  0  0  0  0  0  0
   27.1487   17.2363    8.9816 H   0  0  0  0  0  0  0  0  0  0  0  0
   24.2686   18.0180   14.4285 H   0  0  0  0  0  0  0  0  0  0  0  0
   26.1257   16.5362   14.8540 H   0  0  0  0  0  0  0  0  0  0  0  0
   27.2829   17.7624   14.2416 H   0  0  0  0  0  0  0  0  0  0  0  0
   25.3798   18.0644   16.6203 H   0  0  0  0  0  0  0  0  0  0  0  0
   27.1799   17.8808   16.6760 H   0  0  0  0  0  0  0  0  0  0  0  0
   26.0287   21.3925   14.8201 H   0  0  0  0  0  0  0  0  0  0  0  0
   23.0416   11.6973    3.7001 H   0  0  0  0  0  0  0  0  0  0  0  0
  1  2  1  0
  2  3  1  0
  3  4  2  0
  4  5  1  0
  5  6  1  0
  6  7  2  0
  6  8  2  0
  6  9  1  0
  9 10  2  0
 10 11  1  0
 11 12  2  0
 12 13  1  0
 13 14  2  0
 14 15  1  0
 15 16  2  0
 15 17  1  0
 17 18  1  0
 18 19  2  0
 19 20  1  0
 20 21  2  0
 21 22  1  0
 22 23  2  0
 22 24  1  0
 24 25  2  0
 24 26  1  0
 26 27  1  0
 27 28  1  0
 28 29  1  0
 29 30  1  0
 30 31  2  0
 30 32  1  0
 32 33  1  0
 33 34  2  0
 26 35  1  0
 35 36  2  0
  5 37  1  0
 37 38  2  0
 38  3  1  0
 14  9  1  0
 23 18  1  0
 33 27  1  0
 35 21  1  0
  1 39  1  0
  1 40  1  0
  1 41  1  0
  2 42  1  0
  2 43  1  0
  4 44  1  0
 10 45  1  0
 11 46  1  0
 12 47  1  0
 13 48  1  0
 17 49  1  0
 19 50  1  0
 20 51  1  0
 23 52  1  0
 27 53  1  1
 28 54  1  0
 28 55  1  0
 29 56  1  0
 29 57  1  0
 32 58  1  0
 37 59  1  0
M  END
>  <meeko>  (458) 
{"is_sidechain": [true], "free_energy": -12.49, "intermolecular_energy": 0.0, "internal_energy": -12.49, "cluster_size": 15, "cluster_id": 1, "rank_in_cluster": 1}

>  <_RMSD_MCS_to_ref>  (458) 
0.8114365347949275

$$$$
ligand
     RDKit          3D

 61 66  0  0  0  0  0  0  0  0999 V2000
   24.8540    9.4020    7.6050 C   0  0  0  0  0  0  0  0  0  0  0  0
   25.5230   10.7550    7.4270 C   0  0  0  0  0  0  0  0  0  0  0  0
   26.7450   10.6720    6.5830 C   0  0  0  0  0  0  0  0  0  0  0  0
   27.1260   11.4750    5.5260 C   0  0  0  0  0  0  0  0  0  0  0  0
   28.3320   10.9640    5.1350 N   0  0  0  0  0  0  0  0  0  0  0  0
   29.2460   11.4740    3.8250 S   0  0  0  0  0  6  0  0  0  0  0  0
   28.5280   11.0380    2.6410 O   0  0  0  0  0  0  0  0  0  0  0  0
   30.6050   11.0430    4.1040 O   0  0  0  0  0  0  0  0  0  0  0  0
   29.2140   13.2450    3.8730 C   0  0  0  0  0  0  0  0  0  0  0  0
   28.4960   13.8840    4.8730 C   0  0  0  0  0  0  0  0  0  0  0  0
   28.4900   15.2790    4.8730 C   0  0  0  0  0  0  0  0  0  0  0  0
   27.7690   16.0490    5.8720 C   0  0  0  0  0  0  0  0  0  0  0  0
   27.4040   15.6490    7.1380 C   0  0  0  0  0  0  0  0  0  0  0  0
   26.7480   16.7360    7.6770 N   0  0  0  0  0  0  0  0  0  0  0  0
   26.1600   16.8750    8.9610 C   0  0  0  0  0  0  0  0  0  0  0  0
   24.8620   16.3510    9.1900 C   0  0  0  0  0  0  0  0  0  0  0  0
   24.2390   16.4690   10.4400 C   0  0  0  0  0  0  0  0  0  0  0  0
   24.9280   17.1080   11.4530 C   0  0  0  0  0  0  0  0  0  0  0  0
   26.2020   17.6160   11.2190 C   0  0  0  0  0  0  0  0  0  0  0  0
   26.8450   17.5230    9.9960 C   0  0  0  0  0  0  0  0  0  0  0  0
   26.6800   18.2380   12.4590 C   0  0  0  0  0  0  0  0  0  0  0  0
   27.7280   18.8430   12.5600 O   0  0  0  0  0  0  0  0  0  0  0  0
   25.7100   18.0090   13.4230 N   0  0  0  0  0  0  0  0  0  0  0  0
   25.6820   18.6570   14.7300 C   0  0  1  0  0  0  0  0  0  0  0  0
   26.6720   18.0650   15.7330 C   0  0  0  0  0  0  0  0  0  0  0  0
   26.5150   18.7690   17.0720 C   0  0  0  0  0  0  0  0  0  0  0  0
   26.7010   20.2610   16.9310 C   0  0  0  0  0  0  0  0  0  0  0  0
   27.0340   20.9700   17.8760 O   0  0  0  0  0  0  0  0  0  0  0  0
   26.3990   20.8090   15.7100 N   0  0  0  0  0  0  0  0  0  0  0  0
   25.8880   20.1740   14.6010 C   0  0  0  0  0  0  0  0  0  0  0  0
   25.5320   20.8270   13.6200 O   0  0  0  0  0  0  0  0  0  0  0  0
   24.5130   17.3990   12.8560 C   0  0  0  0  0  0  0  0  0  0  0  0
   26.7230   17.7400    6.7680 N   0  0  0  0  0  0  0  0  0  0  0  0
   27.3400   17.3300    5.6700 N   0  0  0  0  0  0  0  0  0  0  0  0
   29.2050   15.9500    3.8710 C   0  0  0  0  0  0  0  0  0  0  0  0
   29.8890   15.2120    2.9170 C   0  0  0  0  0  0  0  0  0  0  0  0
   29.9110   13.8650    2.8920 N   0  0  0  0  0  0  0  0  0  0  0  0
   28.6240    9.8800    5.8990 C   0  0  0  0  0  0  0  0  0  0  0  0
   27.6870    9.6860    6.8040 N   0  0  0  0  0  0  0  0  0  0  0  0
   24.7464    9.1845    8.6779 H   0  0  0  0  0  0  0  0  0  0  0  0
   23.8606    9.4192    7.1330 H   0  0  0  0  0  0  0  0  0  0  0  0
   25.4708    8.6230    7.1330 H   0  0  0  0  0  0  0  0  0  0  0  0
   24.8093   11.4428    6.9500 H   0  0  0  0  0  0  0  0  0  0  0  0
   25.8239   11.1159    8.4216 H   0  0  0  0  0  0  0  0  0  0  0  0
   26.5832   12.3301    5.0969 H   0  0  0  0  0  0  0  0  0  0  0  0
   27.9512   13.3116    5.6382 H   0  0  0  0  0  0  0  0  0  0  0  0
   27.5939   14.6761    7.6148 H   0  0  0  0  0  0  0  0  0  0  0  0
   24.3338   15.8419    8.3703 H   0  0  0  0  0  0  0  0  0  0  0  0
   23.2303   16.0644   10.6097 H   0  0  0  0  0  0  0  0  0  0  0  0
   27.8513   17.9405    9.8441 H   0  0  0  0  0  0  0  0  0  0  0  0
   24.6783   18.4615   15.1355 H   0  0  0  0  0  0  0  0  0  0  0  0
   26.4707   16.9907   15.8572 H   0  0  0  0  0  0  0  0  0  0  0  0
   27.6984   18.2040   15.3625 H   0  0  0  0  0  0  0  0  0  0  0  0
   25.5078   18.5689   17.4664 H   0  0  0  0  0  0  0  0  0  0  0  0
   27.2843   18.3860   17.7587 H   0  0  0  0  0  0  0  0  0  0  0  0
   26.5763   21.8188   15.6113 H   0  0  0  0  0  0  0  0  0  0  0  0
   24.2469   16.4754   13.3908 H   0  0  0  0  0  0  0  0  0  0  0  0
   23.6217   18.0400   12.9241 H   0  0  0  0  0  0  0  0  0  0  0  0
   29.2232   17.0495    3.8420 H   0  0  0  0  0  0  0  0  0  0  0  0
   30.4438   15.7558    2.1382 H   0  0  0  0  0  0  0  0  0  0  0  0
   29.5186    9.2514    5.7788 H   0  0  0  0  0  0  0  0  0  0  0  0
  1  2  1  0
  2  3  1  0
  3  4  2  0
  4  5  1  0
  5  6  1  0
  6  7  2  0
  6  8  2  0
  6  9  1  0
  9 10  2  0
 10 11  1  0
 11 12  1  0
 12 13  2  0
 13 14  1  0
 14 15  1  0
 15 16  2  0
 16 17  1  0
 17 18  2  0
 18 19  1  0
 19 20  2  0
 19 21  1  0
 21 22  2  0
 21 23  1  0
 23 24  1  0
 24 25  1  0
 25 26  1  0
 26 27  1  0
 27 28  2  0
 27 29  1  0
 29 30  1  0
 30 31  2  0
 23 32  1  0
 14 33  1  0
 33 34  2  0
 11 35  2  0
 35 36  1  0
 36 37  2  0
  5 38  1  0
 38 39  2  0
 39  3  1  0
 37  9  1  0
 34 12  1  0
 20 15  1  0
 30 24  1  0
 32 18  1  0
  1 40  1  0
  1 41  1  0
  1 42  1  0
  2 43  1  0
  2 44  1  0
  4 45  1  0
 10 46  1  0
 13 47  1  0
 16 48  1  0
 17 49  1  0
 20 50  1  0
 24 51  1  1
 25 52  1  0
 25 53  1  0
 26 54  1  0
 26 55  1  0
 29 56  1  0
 32 57  1  0
 32 58  1  0
 35 59  1  0
 36 60  1  0
 38 61  1  0
M  END
>  <meeko>  (459) 
{"is_sidechain": [true], "free_energy": -12.49, "intermolecular_energy": 0.0, "internal_energy": -12.49, "cluster_size": 16, "cluster_id": 1, "rank_in_cluster": 1}

>  <_RMSD_MCS_to_ref>  (459) 
0.7979752850530867

$$$$
ligand
     RDKit          3D

 60 65  0  0  0  0  0  0  0  0999 V2000
   24.8710    9.6160    7.7820 C   0  0  0  0  0  0  0  0  0  0  0  0
   25.4240   10.9650    7.3490 C   0  0  0  0  0  0  0  0  0  0  0  0
   26.8260   10.8640    6.8620 C   0  0  0  0  0  0  0  0  0  0  0  0
   27.9700   11.4400    7.3790 C   0  0  0  0  0  0  0  0  0  0  0  0
   28.9570   11.0460    6.5210 N   0  0  0  0  0  0  0  0  0  0  0  0
   30.5950   11.3670    6.6950 S   0  0  0  0  0  6  0  0  0  0  0  0
   31.2190   10.0580    6.6410 O   0  0  0  0  0  0  0  0  0  0  0  0
   30.9300   12.4140    5.7520 O   0  0  0  0  0  0  0  0  0  0  0  0
   30.8080   12.0080    8.3330 C   0  0  0  0  0  0  0  0  0  0  0  0
   31.8010   11.4350    9.1530 C   0  0  0  0  0  0  0  0  0  0  0  0
   32.0170   11.9000   10.4510 C   0  0  0  0  0  0  0  0  0  0  0  0
   31.2610   12.9510   10.9740 C   0  0  0  0  0  0  0  0  0  0  0  0
   30.2940   13.5060   10.1380 C   0  0  0  0  0  0  0  0  0  0  0  0
   29.4680   14.5360   10.4830 O   0  0  0  0  0  0  0  0  0  0  0  0
   28.6820   14.7800    9.3980 C   0  0  0  0  0  0  0  0  0  0  0  0
   27.6790   15.7380    9.2700 C   0  0  0  0  0  0  0  0  0  0  0  0
   27.3660   16.5960   10.3300 N   0  0  0  0  0  0  0  0  0  0  0  0
   26.1930   16.7960   11.0750 C   0  0  0  0  0  0  0  0  0  0  0  0
   24.9500   16.2670   10.7260 C   0  0  0  0  0  0  0  0  0  0  0  0
   23.8230   16.4820   11.5260 C   0  0  0  0  0  0  0  0  0  0  0  0
   23.9250   17.2210   12.7010 C   0  0  0  0  0  0  0  0  0  0  0  0
   25.1570   17.7550   13.0940 C   0  0  0  0  0  0  0  0  0  0  0  0
   25.2640   18.5120   14.4080 C   0  0  1  0  0  0  0  0  0  0  0  0
   26.3200   17.8530   15.3020 C   0  0  0  0  0  0  0  0  0  0  0  0
   26.3720   18.5600   16.6480 C   0  0  0  0  0  0  0  0  0  0  0  0
   26.6510   20.0320   16.4760 C   0  0  0  0  0  0  0  0  0  0  0  0
   27.1990   20.7030   17.3440 O   0  0  0  0  0  0  0  0  0  0  0  0
   26.2050   20.6060   15.3120 N   0  0  0  0  0  0  0  0  0  0  0  0
   25.5620   20.0040   14.2540 C   0  0  0  0  0  0  0  0  0  0  0  0
   25.2210   20.6820   13.2870 O   0  0  0  0  0  0  0  0  0  0  0  0
   26.2800   17.5230   12.2780 C   0  0  0  0  0  0  0  0  0  0  0  0
   27.0340   15.7480    8.0740 N   0  0  0  0  0  0  0  0  0  0  0  0
   27.3990   14.8730    7.1150 C   0  0  0  0  0  0  0  0  0  0  0  0
   28.3630   13.9380    7.1760 N   0  0  0  0  0  0  0  0  0  0  0  0
   28.9980   13.9160    8.3660 C   0  0  0  0  0  0  0  0  0  0  0  0
   30.0410   13.0750    8.8360 C   0  0  0  0  0  0  0  0  0  0  0  0
   28.4330   10.2050    5.5940 C   0  0  0  0  0  0  0  0  0  0  0  0
   27.1290   10.0970    5.7540 N   0  0  0  0  0  0  0  0  0  0  0  0
   24.8497    9.5640    8.8806 H   0  0  0  0  0  0  0  0  0  0  0  0
   23.8507    9.4948    7.3893 H   0  0  0  0  0  0  0  0  0  0  0  0
   25.5127    8.8135    7.3893 H   0  0  0  0  0  0  0  0  0  0  0  0
   24.7949   11.3630    6.5392 H   0  0  0  0  0  0  0  0  0  0  0  0
   25.4162   11.6314    8.2242 H   0  0  0  0  0  0  0  0  0  0  0  0
   28.0644   12.0707    8.2753 H   0  0  0  0  0  0  0  0  0  0  0  0
   32.4148   10.6091    8.7641 H   0  0  0  0  0  0  0  0  0  0  0  0
   32.7949   11.4313   11.0717 H   0  0  0  0  0  0  0  0  0  0  0  0
   31.4210   13.3230   11.9967 H   0  0  0  0  0  0  0  0  0  0  0  0
   28.1492   17.1986   10.6205 H   0  0  0  0  0  0  0  0  0  0  0  0
   24.8548   15.6709    9.8064 H   0  0  0  0  0  0  0  0  0  0  0  0
   22.8508   16.0648   11.2249 H   0  0  0  0  0  0  0  0  0  0  0  0
   23.0331   17.3859   13.3234 H   0  0  0  0  0  0  0  0  0  0  0  0
   24.2696   18.4537   14.8746 H   0  0  0  0  0  0  0  0  0  0  0  0
   26.0597   16.7953   15.4552 H   0  0  0  0  0  0  0  0  0  0  0  0
   27.3039   17.9267   14.8156 H   0  0  0  0  0  0  0  0  0  0  0  0
   25.4053   18.4344   17.1576 H   0  0  0  0  0  0  0  0  0  0  0  0
   27.1832   18.1174   17.2447 H   0  0  0  0  0  0  0  0  0  0  0  0
   26.3730   21.6178   15.2178 H   0  0  0  0  0  0  0  0  0  0  0  0
   27.2565   17.9221   12.5897 H   0  0  0  0  0  0  0  0  0  0  0  0
   26.8408   14.9313    6.1690 H   0  0  0  0  0  0  0  0  0  0  0  0
   29.0147    9.6861    4.8179 H   0  0  0  0  0  0  0  0  0  0  0  0
  1  2  1  0
  2  3  1  0
  3  4  2  0
  4  5  1  0
  5  6  1  0
  6  7  2  0
  6  8  2  0
  6  9  1  0
  9 10  2  0
 10 11  1  0
 11 12  2  0
 12 13  1  0
 13 14  1  0
 14 15  1  0
 15 16  2  0
 16 17  1  0
 17 18  1  0
 18 19  2  0
 19 20  1  0
 20 21  2  0
 21 22  1  0
 22 23  1  0
 23 24  1  0
 24 25  1  0
 25 26  1  0
 26 27  2  0
 26 28  1  0
 28 29  1  0
 29 30  2  0
 22 31  2  0
 16 32  1  0
 32 33  2  0
 33 34  1  0
 34 35  2  0
 35 36  1  0
  5 37  1  0
 37 38  2  0
 38  3  1  0
 36  9  1  0
 36 13  2  0
 35 15  1  0
 31 18  1  0
 29 23  1  0
  1 39  1  0
  1 40  1  0
  1 41  1  0
  2 42  1  0
  2 43  1  0
  4 44  1  0
 10 45  1  0
 11 46  1  0
 12 47  1  0
 17 48  1  0
 19 49  1  0
 20 50  1  0
 21 51  1  0
 23 52  1  1
 24 53  1  0
 24 54  1  0
 25 55  1  0
 25 56  1  0
 28 57  1  0
 31 58  1  0
 33 59  1  0
 37 60  1  0
M  END
>  <meeko>  (460) 
{"is_sidechain": [true], "free_energy": -12.49, "intermolecular_energy": 0.0, "internal_energy": -12.49, "cluster_size": 10, "cluster_id": 1, "rank_in_cluster": 1}

>  <_RMSD_MCS_to_ref>  (460) 
0.5835431646416573

$$$$
ligand
     RDKit          3D

 62 67  0  0  0  0  0  0  0  0999 V2000
   24.8710    9.6160    7.7820 C   0  0  0  0  0  0  0  0  0  0  0  0
   25.4240   10.9650    7.3490 C   0  0  0  0  0  0  0  0  0  0  0  0
   26.8830   10.9080    7.0650 C   0  0  0  0  0  0  0  0  0  0  0  0
   27.9240   11.5210    7.7360 C   0  0  0  0  0  0  0  0  0  0  0  0
   29.0370   11.1360    7.0450 N   0  0  0  0  0  0  0  0  0  0  0  0
   30.6220   11.5790    7.4130 S   0  0  0  0  0  6  0  0  0  0  0  0
   30.9800   10.8550    8.6190 O   0  0  0  0  0  0  0  0  0  0  0  0
   31.3410   11.3320    6.1730 O   0  0  0  0  0  0  0  0  0  0  0  0
   30.6860   13.1810    7.6870 O   0  0  0  0  0  0  0  0  0  0  0  0
   29.7520   14.0010    7.1050 C   0  0  0  0  0  0  0  0  0  0  0  0
   30.0380   14.4920    5.8840 N   0  0  0  0  0  0  0  0  0  0  0  0
   29.1370   15.3310    5.3360 C   0  0  0  0  0  0  0  0  0  0  0  0
   27.9670   15.7170    5.9650 C   0  0  0  0  0  0  0  0  0  0  0  0
   27.6910   15.2180    7.2430 C   0  0  0  0  0  0  0  0  0  0  0  0
   26.5210   15.5820    7.9320 C   0  0  0  0  0  0  0  0  0  0  0  0
   26.2400   15.0880    9.2170 C   0  0  0  0  0  0  0  0  0  0  0  0
   25.0180   15.4850    9.9210 C   0  0  0  0  0  0  0  0  0  0  0  0
   23.7460   15.1600    9.4080 C   0  0  0  0  0  0  0  0  0  0  0  0
   22.5610   15.5480   10.0640 C   0  0  0  0  0  0  0  0  0  0  0  0
   22.6150   16.2690   11.2540 C   0  0  0  0  0  0  0  0  0  0  0  0
   23.8660   16.5750   11.7520 C   0  0  0  0  0  0  0  0  0  0  0  0
   25.0510   16.1990   11.1150 C   0  0  0  0  0  0  0  0  0  0  0  0
   26.2220   16.6810   11.9080 C   0  0  0  0  0  0  0  0  0  0  0  0
   25.5950   17.2890   13.0740 N   0  0  0  0  0  0  0  0  0  0  0  0
   26.3120   18.1300   14.0260 C   0  0  1  0  0  0  0  0  0  0  0  0
   25.7600   19.5510   14.0800 C   0  0  0  0  0  0  0  0  0  0  0  0
   26.6100   20.3880   15.0230 C   0  0  0  0  0  0  0  0  0  0  0  0
   26.6870   19.7570   16.3930 C   0  0  0  0  0  0  0  0  0  0  0  0
   26.7040   20.4230   17.4240 O   0  0  0  0  0  0  0  0  0  0  0  0
   26.7540   18.3870   16.4340 N   0  0  0  0  0  0  0  0  0  0  0  0
   26.3070   17.5390   15.4470 C   0  0  0  0  0  0  0  0  0  0  0  0
   25.9260   16.4050   15.7290 O   0  0  0  0  0  0  0  0  0  0  0  0
   24.2130   17.3120   12.9710 C   0  0  0  0  0  0  0  0  0  0  0  0
   23.4150   17.8330   13.7250 O   0  0  0  0  0  0  0  0  0  0  0  0
   27.1530   14.2070    9.8070 C   0  0  0  0  0  0  0  0  0  0  0  0
   28.3210   13.8340    9.1360 C   0  0  0  0  0  0  0  0  0  0  0  0
   28.6060   14.3320    7.8480 C   0  0  0  0  0  0  0  0  0  0  0  0
   28.6720   10.3240    6.0200 C   0  0  0  0  0  0  0  0  0  0  0  0
   27.3630   10.1680    6.0000 N   0  0  0  0  0  0  0  0  0  0  0  0
   24.8497    9.5640    8.8806 H   0  0  0  0  0  0  0  0  0  0  0  0
   23.8507    9.4948    7.3893 H   0  0  0  0  0  0  0  0  0  0  0  0
   25.5127    8.8135    7.3893 H   0  0  0  0  0  0  0  0  0  0  0  0
   24.8980   11.2880    6.4385 H   0  0  0  0  0  0  0  0  0  0  0  0
   25.2676   11.6753    8.1743 H   0  0  0  0  0  0  0  0  0  0  0  0
   27.8687   12.1697    8.6226 H   0  0  0  0  0  0  0  0  0  0  0  0
   29.3435   15.7313    4.3324 H   0  0  0  0  0  0  0  0  0  0  0  0
   27.2657   16.4043    5.4692 H   0  0  0  0  0  0  0  0  0  0  0  0
   25.8084   16.2701    7.4537 H   0  0  0  0  0  0  0  0  0  0  0  0
   23.6767   14.5884    8.4708 H   0  0  0  0  0  0  0  0  0  0  0  0
   21.5854   15.2792    9.6327 H   0  0  0  0  0  0  0  0  0  0  0  0
   21.6987   16.5820   11.7759 H   0  0  0  0  0  0  0  0  0  0  0  0
   26.8740   15.8445   12.1999 H   0  0  0  0  0  0  0  0  0  0  0  0
   26.8692   17.3743   11.3508 H   0  0  0  0  0  0  0  0  0  0  0  0
   27.3473   18.1651   13.6561 H   0  0  0  0  0  0  0  0  0  0  0  0
   25.7855   19.9930   13.0730 H   0  0  0  0  0  0  0  0  0  0  0  0
   24.7221   19.5282   14.4436 H   0  0  0  0  0  0  0  0  0  0  0  0
   27.6258   20.4741   14.6098 H   0  0  0  0  0  0  0  0  0  0  0  0
   26.1466   21.3807   15.1219 H   0  0  0  0  0  0  0  0  0  0  0  0
   27.1730   17.9587   17.2718 H   0  0  0  0  0  0  0  0  0  0  0  0
   26.9493   13.8035   10.8099 H   0  0  0  0  0  0  0  0  0  0  0  0
   29.0273   13.1428    9.6191 H   0  0  0  0  0  0  0  0  0  0  0  0
   29.3700    9.8614    5.3067 H   0  0  0  0  0  0  0  0  0  0  0  0
  1  2  1  0
  2  3  1  0
  3  4  2  0
  4  5  1  0
  5  6  1  0
  6  7  2  0
  6  8  2  0
  6  9  1  0
  9 10  1  0
 10 11  2  0
 11 12  1  0
 12 13  2  0
 13 14  1  0
 14 15  2  0
 15 16  1  0
 16 17  1  0
 17 18  2  0
 18 19  1  0
 19 20  2  0
 20 21  1  0
 21 22  2  0
 22 23  1  0
 23 24  1  0
 24 25  1  0
 25 26  1  0
 26 27  1  0
 27 28  1  0
 28 29  2  0
 28 30  1  0
 30 31  1  0
 31 32  2  0
 24 33  1  0
 33 34  2  0
 16 35  2  0
 35 36  1  0
 36 37  2  0
  5 38  1  0
 38 39  2  0
 39  3  1  0
 37 10  1  0
 37 14  1  0
 22 17  1  0
 31 25  1  0
 33 21  1  0
  1 40  1  0
  1 41  1  0
  1 42  1  0
  2 43  1  0
  2 44  1  0
  4 45  1  0
 12 46  1  0
 13 47  1  0
 15 48  1  0
 18 49  1  0
 19 50  1  0
 20 51  1  0
 23 52  1  0
 23 53  1  0
 25 54  1  6
 26 55  1  0
 26 56  1  0
 27 57  1  0
 27 58  1  0
 30 59  1  0
 35 60  1  0
 36 61  1  0
 38 62  1  0
M  END
>  <meeko>  (461) 
{"is_sidechain": [true], "free_energy": -12.49, "intermolecular_energy": 0.0, "internal_energy": -12.49, "cluster_size": 14, "cluster_id": 1, "rank_in_cluster": 1}

>  <_RMSD_MCS_to_ref>  (461) 
1.9297431895922776

$$$$
ligand
     RDKit          3D

 57 61  0  0  0  0  0  0  0  0999 V2000
   24.8540    9.4020    7.6050 C   0  0  0  0  0  0  0  0  0  0  0  0
   25.5230   10.7550    7.4270 C   0  0  0  0  0  0  0  0  0  0  0  0
   25.3600   11.2850    6.0460 C   0  0  0  0  0  0  0  0  0  0  0  0
   25.9900   12.3580    5.4470 C   0  0  0  0  0  0  0  0  0  0  0  0
   25.4820   12.3820    4.1810 N   0  0  0  0  0  0  0  0  0  0  0  0
   25.6940   13.6110    3.0610 S   0  0  0  0  0  6  0  0  0  0  0  0
   24.4760   13.6670    2.2780 O   0  0  0  0  0  0  0  0  0  0  0  0
   27.0090   13.4250    2.4820 O   0  0  0  0  0  0  0  0  0  0  0  0
   25.7810   15.1210    3.9010 C   0  0  0  0  0  0  0  0  0  0  0  0
   26.1250   16.3170    3.3120 C   0  0  0  0  0  0  0  0  0  0  0  0
   26.0920   17.6080    4.4320 S   0  0  0  0  0  0  0  0  0  0  0  0
   25.6270   16.5790    5.7240 C   0  0  0  0  0  0  0  0  0  0  0  0
   25.4030   17.0680    7.0860 C   0  0  0  0  0  0  0  0  0  0  0  0
   25.6990   18.2190    7.3940 O   0  0  0  0  0  0  0  0  0  0  0  0
   24.8460   16.1410    7.9520 N   0  0  0  0  0  0  0  0  0  0  0  0
   24.5170   16.2990    9.3130 C   0  0  0  0  0  0  0  0  0  0  0  0
   23.3660   15.7490    9.9140 C   0  0  0  0  0  0  0  0  0  0  0  0
   23.0850   15.9430   11.2760 C   0  0  0  0  0  0  0  0  0  0  0  0
   23.9720   16.6880   12.0280 C   0  0  0  0  0  0  0  0  0  0  0  0
   25.1060   17.2240   11.4290 C   0  0  0  0  0  0  0  0  0  0  0  0
   25.4030   17.0540   10.0900 C   0  0  0  0  0  0  0  0  0  0  0  0
   25.8550   17.9620   12.4510 C   0  0  0  0  0  0  0  0  0  0  0  0
   26.8550   18.6160   12.2310 O   0  0  0  0  0  0  0  0  0  0  0  0
   25.1890   17.7730   13.6530 N   0  0  0  0  0  0  0  0  0  0  0  0
   25.4700   18.5180   14.8750 C   0  0  1  0  0  0  0  0  0  0  0  0
   26.6240   17.9410   15.6950 C   0  0  0  0  0  0  0  0  0  0  0  0
   26.7900   18.7520   16.9700 C   0  0  0  0  0  0  0  0  0  0  0  0
   27.0120   20.2150   16.6650 C   0  0  0  0  0  0  0  0  0  0  0  0
   27.5740   20.9710   17.4530 O   0  0  0  0  0  0  0  0  0  0  0  0
   26.4790   20.6880   15.4930 N   0  0  0  0  0  0  0  0  0  0  0  0
   25.7110   20.0060   14.5760 C   0  0  0  0  0  0  0  0  0  0  0  0
   25.1790   20.6060   13.6430 O   0  0  0  0  0  0  0  0  0  0  0  0
   23.9230   17.0720   13.4670 C   0  0  0  0  0  0  0  0  0  0  0  0
   25.5010   15.2690    5.2920 C   0  0  0  0  0  0  0  0  0  0  0  0
   24.5480   11.4040    4.0580 C   0  0  0  0  0  0  0  0  0  0  0  0
   24.4610   10.7070    5.1710 N   0  0  0  0  0  0  0  0  0  0  0  0
   24.7464    9.1845    8.6779 H   0  0  0  0  0  0  0  0  0  0  0  0
   23.8606    9.4192    7.1330 H   0  0  0  0  0  0  0  0  0  0  0  0
   25.4708    8.6230    7.1330 H   0  0  0  0  0  0  0  0  0  0  0  0
   25.0751   11.4676    8.1352 H   0  0  0  0  0  0  0  0  0  0  0  0
   26.5993   10.6271    7.6149 H   0  0  0  0  0  0  0  0  0  0  0  0
   26.7323   13.0384    5.8897 H   0  0  0  0  0  0  0  0  0  0  0  0
   26.3890   16.4282    2.2499 H   0  0  0  0  0  0  0  0  0  0  0  0
   24.6462   15.2149    7.5480 H   0  0  0  0  0  0  0  0  0  0  0  0
   22.6722   15.1542    9.3017 H   0  0  0  0  0  0  0  0  0  0  0  0
   22.1814   15.5126   11.7324 H   0  0  0  0  0  0  0  0  0  0  0  0
   26.3074   17.4982    9.6488 H   0  0  0  0  0  0  0  0  0  0  0  0
   24.5683   18.4176   15.4970 H   0  0  0  0  0  0  0  0  0  0  0  0
   26.4048   16.8940   15.9515 H   0  0  0  0  0  0  0  0  0  0  0  0
   27.5523   17.9859   15.1066 H   0  0  0  0  0  0  0  0  0  0  0  0
   25.8820   18.6473   17.5820 H   0  0  0  0  0  0  0  0  0  0  0  0
   27.6696   18.3727   17.5107 H   0  0  0  0  0  0  0  0  0  0  0  0
   26.6776   21.6742   15.2718 H   0  0  0  0  0  0  0  0  0  0  0  0
   23.8623   16.1838   14.1131 H   0  0  0  0  0  0  0  0  0  0  0  0
   23.0441   17.6799   13.7278 H   0  0  0  0  0  0  0  0  0  0  0  0
   25.2163   14.4343    5.9494 H   0  0  0  0  0  0  0  0  0  0  0  0
   23.9481   11.2201    3.1545 H   0  0  0  0  0  0  0  0  0  0  0  0
  1  2  1  0
  2  3  1  0
  3  4  2  0
  4  5  1  0
  5  6  1  0
  6  7  2  0
  6  8  2  0
  6  9  1  0
  9 10  2  0
 10 11  1  0
 11 12  1  0
 12 13  1  0
 13 14  2  0
 13 15  1  0
 15 16  1  0
 16 17  2  0
 17 18  1  0
 18 19  2  0
 19 20  1  0
 20 21  2  0
 20 22  1  0
 22 23  2  0
 22 24  1  0
 24 25  1  0
 25 26  1  0
 26 27  1  0
 27 28  1  0
 28 29  2  0
 28 30  1  0
 30 31  1  0
 31 32  2  0
 24 33  1  0
 12 34  2  0
  5 35  1  0
 35 36  2  0
 36  3  1  0
 34  9  1  0
 21 16  1  0
 31 25  1  0
 33 19  1  0
  1 37  1  0
  1 38  1  0
  1 39  1  0
  2 40  1  0
  2 41  1  0
  4 42  1  0
 10 43  1  0
 15 44  1  0
 17 45  1  0
 18 46  1  0
 21 47  1  0
 25 48  1  1
 26 49  1  0
 26 50  1  0
 27 51  1  0
 27 52  1  0
 30 53  1  0
 33 54  1  0
 33 55  1  0
 34 56  1  0
 35 57  1  0
M  END
>  <meeko>  (462) 
{"is_sidechain": [true], "free_energy": -12.48, "intermolecular_energy": 0.0, "internal_energy": -12.48, "cluster_size": 20, "cluster_id": 1, "rank_in_cluster": 1}

>  <_RMSD_MCS_to_ref>  (462) 
0.5943643663612397

$$$$
ligand
     RDKit          3D

 60 65  0  0  0  0  0  0  0  0999 V2000
   24.8540    9.4020    7.6050 C   0  0  0  0  0  0  0  0  0  0  0  0
   25.5230   10.7550    7.4270 C   0  0  0  0  0  0  0  0  0  0  0  0
   25.2410   11.3550    6.0940 C   0  0  0  0  0  0  0  0  0  0  0  0
   24.5920   12.5380    5.7940 C   0  0  0  0  0  0  0  0  0  0  0  0
   24.6680   12.6240    4.4330 N   0  0  0  0  0  0  0  0  0  0  0  0
   23.9350   13.7920    3.4750 S   0  0  0  0  0  6  0  0  0  0  0  0
   22.5280   13.7650    3.8210 O   0  0  0  0  0  0  0  0  0  0  0  0
   24.4170   13.5310    2.1310 O   0  0  0  0  0  0  0  0  0  0  0  0
   24.5790   15.3690    3.9800 C   0  0  0  0  0  0  0  0  0  0  0  0
   24.3620   16.4560    3.1170 C   0  0  0  0  0  0  0  0  0  0  0  0
   24.8110   17.7400    3.4470 C   0  0  0  0  0  0  0  0  0  0  0  0
   25.4790   17.8660    4.6620 C   0  0  0  0  0  0  0  0  0  0  0  0
   25.9780   19.0130    5.1900 O   0  0  0  0  0  0  0  0  0  0  0  0
   26.5560   18.7460    6.4200 N   0  0  0  0  0  0  0  0  0  0  0  0
   26.4380   17.4260    6.6060 C   0  0  0  0  0  0  0  0  0  0  0  0
   26.8920   16.7680    7.7060 N   0  0  0  0  0  0  0  0  0  0  0  0
   26.3270   16.8050    9.0060 C   0  0  0  0  0  0  0  0  0  0  0  0
   25.3800   15.8420    9.4310 C   0  0  0  0  0  0  0  0  0  0  0  0
   24.8470   15.8720   10.7220 C   0  0  0  0  0  0  0  0  0  0  0  0
   25.2880   16.8740   11.5620 C   0  0  0  0  0  0  0  0  0  0  0  0
   26.2340   17.8190   11.1790 C   0  0  0  0  0  0  0  0  0  0  0  0
   26.7800   17.7840    9.9060 C   0  0  0  0  0  0  0  0  0  0  0  0
   26.5050   18.7550   12.3080 C   0  0  0  0  0  0  0  0  0  0  0  0
   25.5510   18.3170   13.3190 N   0  0  0  0  0  0  0  0  0  0  0  0
   25.5840   18.8520   14.6750 C   0  0  1  0  0  0  0  0  0  0  0  0
   26.6770   18.2400   15.5510 C   0  0  0  0  0  0  0  0  0  0  0  0
   26.5870   18.8240   16.9510 C   0  0  0  0  0  0  0  0  0  0  0  0
   26.6870   20.3320   16.9220 C   0  0  0  0  0  0  0  0  0  0  0  0
   27.0590   20.9810   17.8950 O   0  0  0  0  0  0  0  0  0  0  0  0
   26.2620   20.9560   15.7770 N   0  0  0  0  0  0  0  0  0  0  0  0
   25.6950   20.3840   14.6610 C   0  0  0  0  0  0  0  0  0  0  0  0
   25.2230   21.0910   13.7720 O   0  0  0  0  0  0  0  0  0  0  0  0
   24.8940   17.1560   12.9460 C   0  0  0  0  0  0  0  0  0  0  0  0
   24.1320   16.4710   13.5990 O   0  0  0  0  0  0  0  0  0  0  0  0
   25.7270   16.8170    5.5300 C   0  0  0  0  0  0  0  0  0  0  0  0
   25.2580   15.5290    5.1960 C   0  0  0  0  0  0  0  0  0  0  0  0
   25.2890   11.5160    3.9500 C   0  0  0  0  0  0  0  0  0  0  0  0
   25.6440   10.7190    4.9350 N   0  0  0  0  0  0  0  0  0  0  0  0
   24.7464    9.1845    8.6779 H   0  0  0  0  0  0  0  0  0  0  0  0
   23.8606    9.4192    7.1330 H   0  0  0  0  0  0  0  0  0  0  0  0
   25.4708    8.6230    7.1330 H   0  0  0  0  0  0  0  0  0  0  0  0
   25.1539   11.4372    8.2070 H   0  0  0  0  0  0  0  0  0  0  0  0
   26.6100   10.6052    7.5049 H   0  0  0  0  0  0  0  0  0  0  0  0
   24.1222   13.2473    6.4913 H   0  0  0  0  0  0  0  0  0  0  0  0
   23.8310   16.2956    2.1671 H   0  0  0  0  0  0  0  0  0  0  0  0
   24.6453   18.6015    2.7834 H   0  0  0  0  0  0  0  0  0  0  0  0
   27.7311   16.1836    7.5824 H   0  0  0  0  0  0  0  0  0  0  0  0
   25.0581   15.0560    8.7320 H   0  0  0  0  0  0  0  0  0  0  0  0
   24.1075   15.1287   11.0546 H   0  0  0  0  0  0  0  0  0  0  0  0
   27.5522   18.5078    9.6063 H   0  0  0  0  0  0  0  0  0  0  0  0
   27.5395   18.6542   12.6679 H   0  0  0  0  0  0  0  0  0  0  0  0
   26.3967   19.8147   12.0338 H   0  0  0  0  0  0  0  0  0  0  0  0
   24.6264   18.5639   15.1333 H   0  0  0  0  0  0  0  0  0  0  0  0
   26.5415   17.1494   15.5988 H   0  0  0  0  0  0  0  0  0  0  0  0
   27.6634   18.4672   15.1205 H   0  0  0  0  0  0  0  0  0  0  0  0
   25.6239   18.5369   17.3983 H   0  0  0  0  0  0  0  0  0  0  0  0
   27.4240   18.4309   17.5467 H   0  0  0  0  0  0  0  0  0  0  0  0
   26.3819   21.9786   15.7489 H   0  0  0  0  0  0  0  0  0  0  0  0
   25.4204   14.6751    5.8702 H   0  0  0  0  0  0  0  0  0  0  0  0
   25.4698   11.3135    2.8840 H   0  0  0  0  0  0  0  0  0  0  0  0
  1  2  1  0
  2  3  1  0
  3  4  2  0
  4  5  1  0
  5  6  1  0
  6  7  2  0
  6  8  2  0
  6  9  1  0
  9 10  2  0
 10 11  1  0
 11 12  2  0
 12 13  1  0
 13 14  1  0
 14 15  2  0
 15 16  1  0
 16 17  1  0
 17 18  2  0
 18 19  1  0
 19 20  2  0
 20 21  1  0
 21 22  2  0
 21 23  1  0
 23 24  1  0
 24 25  1  0
 25 26  1  0
 26 27  1  0
 27 28  1  0
 28 29  2  0
 28 30  1  0
 30 31  1  0
 31 32  2  0
 24 33  1  0
 33 34  2  0
 15 35  1  0
 35 36  2  0
  5 37  1  0
 37 38  2  0
 38  3  1  0
 36  9  1  0
 35 12  1  0
 22 17  1  0
 31 25  1  0
 33 20  1  0
  1 39  1  0
  1 40  1  0
  1 41  1  0
  2 42  1  0
  2 43  1  0
  4 44  1  0
 10 45  1  0
 11 46  1  0
 16 47  1  0
 18 48  1  0
 19 49  1  0
 22 50  1  0
 23 51  1  0
 23 52  1  0
 25 53  1  1
 26 54  1  0
 26 55  1  0
 27 56  1  0
 27 57  1  0
 30 58  1  0
 36 59  1  0
 37 60  1  0
M  END
>  <meeko>  (463) 
{"is_sidechain": [true], "free_energy": -12.48, "intermolecular_energy": 0.0, "internal_energy": -12.48, "cluster_size": 17, "cluster_id": 1, "rank_in_cluster": 1}

>  <_RMSD_MCS_to_ref>  (463) 
0.7987402581565539

$$$$
ligand
     RDKit          3D

 58 62  0  0  0  0  0  0  0  0999 V2000
   24.8540    9.4020    7.6050 C   0  0  0  0  0  0  0  0  0  0  0  0
   25.5230   10.7550    7.4270 C   0  0  0  0  0  0  0  0  0  0  0  0
   25.0130   11.4830    6.2330 C   0  0  0  0  0  0  0  0  0  0  0  0
   25.3370   12.7470    5.7790 C   0  0  0  0  0  0  0  0  0  0  0  0
   24.6070   12.8840    4.6360 N   0  0  0  0  0  0  0  0  0  0  0  0
   24.5320   14.2540    3.6750 S   0  0  0  0  0  6  0  0  0  0  0  0
   23.6590   15.1590    4.3960 O   0  0  0  0  0  0  0  0  0  0  0  0
   24.2390   13.8200    2.3210 O   0  0  0  0  0  0  0  0  0  0  0  0
   26.1490   14.9540    3.6370 C   0  0  0  0  0  0  0  0  0  0  0  0
   26.9650   14.6410    2.5420 C   0  0  0  0  0  0  0  0  0  0  0  0
   28.2270   15.2010    2.4850 C   0  0  0  0  0  0  0  0  0  0  0  0
   28.7070   16.0380    3.4270 N   0  0  0  0  0  0  0  0  0  0  0  0
   27.9000   16.3210    4.4770 C   0  0  0  0  0  0  0  0  0  0  0  0
   26.6280   15.7890    4.6450 C   0  0  0  0  0  0  0  0  0  0  0  0
   25.8990   16.2120    5.8530 C   0  0  0  0  0  0  0  0  0  0  0  0
   24.8940   16.8850    5.6770 O   0  0  0  0  0  0  0  0  0  0  0  0
   26.4430   15.8170    7.0570 N   0  0  0  0  0  0  0  0  0  0  0  0
   25.9180   16.0660    8.3460 C   0  0  0  0  0  0  0  0  0  0  0  0
   24.6400   15.5190    8.6240 C   0  0  0  0  0  0  0  0  0  0  0  0
   24.0160   15.7040    9.8630 C   0  0  0  0  0  0  0  0  0  0  0  0
   24.7010   16.4430   10.8040 C   0  0  0  0  0  0  0  0  0  0  0  0
   25.9450   16.9830   10.5430 C   0  0  0  0  0  0  0  0  0  0  0  0
   26.5800   16.8160    9.3250 C   0  0  0  0  0  0  0  0  0  0  0  0
   26.3700   17.7030   11.7440 C   0  0  0  0  0  0  0  0  0  0  0  0
   27.4040   18.3350   11.8340 O   0  0  0  0  0  0  0  0  0  0  0  0
   25.3870   17.5230   12.6790 N   0  0  0  0  0  0  0  0  0  0  0  0
   25.3380   18.1810   13.9760 C   0  0  1  0  0  0  0  0  0  0  0  0
   26.3020   17.6070   15.0100 C   0  0  0  0  0  0  0  0  0  0  0  0
   26.1260   18.3520   16.3250 C   0  0  0  0  0  0  0  0  0  0  0  0
   26.3270   19.8390   16.1460 C   0  0  0  0  0  0  0  0  0  0  0  0
   26.7080   20.5640   17.0590 O   0  0  0  0  0  0  0  0  0  0  0  0
   26.0000   20.3600   14.9170 N   0  0  0  0  0  0  0  0  0  0  0  0
   25.5870   19.6810   13.7930 C   0  0  0  0  0  0  0  0  0  0  0  0
   25.3780   20.2860   12.7430 O   0  0  0  0  0  0  0  0  0  0  0  0
   24.3350   16.8110   12.1690 C   0  0  0  0  0  0  0  0  0  0  0  0
   23.2880   16.5030   12.7050 O   0  0  0  0  0  0  0  0  0  0  0  0
   23.8230   11.7900    4.4680 C   0  0  0  0  0  0  0  0  0  0  0  0
   24.0670   10.9040    5.4100 N   0  0  0  0  0  0  0  0  0  0  0  0
   24.7464    9.1845    8.6779 H   0  0  0  0  0  0  0  0  0  0  0  0
   23.8606    9.4192    7.1330 H   0  0  0  0  0  0  0  0  0  0  0  0
   25.4708    8.6230    7.1330 H   0  0  0  0  0  0  0  0  0  0  0  0
   25.3316   11.3651    8.3221 H   0  0  0  0  0  0  0  0  0  0  0  0
   26.5997   10.5823    7.2822 H   0  0  0  0  0  0  0  0  0  0  0  0
   26.0249   13.4745    6.2345 H   0  0  0  0  0  0  0  0  0  0  0  0
   26.6103   13.9670    1.7483 H   0  0  0  0  0  0  0  0  0  0  0  0
   28.8716   14.9518    1.6292 H   0  0  0  0  0  0  0  0  0  0  0  0
   28.2748   17.0148    5.2439 H   0  0  0  0  0  0  0  0  0  0  0  0
   27.3238   15.2850    7.0127 H   0  0  0  0  0  0  0  0  0  0  0  0
   24.1260   14.9346    7.8466 H   0  0  0  0  0  0  0  0  0  0  0  0
   23.0241   15.2791   10.0764 H   0  0  0  0  0  0  0  0  0  0  0  0
   27.5694   17.2568    9.1330 H   0  0  0  0  0  0  0  0  0  0  0  0
   24.3318   17.9975   14.3807 H   0  0  0  0  0  0  0  0  0  0  0  0
   26.0869   16.5388   15.1606 H   0  0  0  0  0  0  0  0  0  0  0  0
   27.3368   17.7225   14.6551 H   0  0  0  0  0  0  0  0  0  0  0  0
   25.1100   18.1712   16.7058 H   0  0  0  0  0  0  0  0  0  0  0  0
   26.8800   17.9833   17.0360 H   0  0  0  0  0  0  0  0  0  0  0  0
   26.0728   21.3834   14.8258 H   0  0  0  0  0  0  0  0  0  0  0  0
   23.0881   11.6616    3.6597 H   0  0  0  0  0  0  0  0  0  0  0  0
  1  2  1  0
  2  3  1  0
  3  4  2  0
  4  5  1  0
  5  6  1  0
  6  7  2  0
  6  8  2  0
  6  9  1  0
  9 10  2  0
 10 11  1  0
 11 12  2  0
 12 13  1  0
 13 14  2  0
 14 15  1  0
 15 16  2  0
 15 17  1  0
 17 18  1  0
 18 19  2  0
 19 20  1  0
 20 21  2  0
 21 22  1  0
 22 23  2  0
 22 24  1  0
 24 25  2  0
 24 26  1  0
 26 27  1  0
 27 28  1  0
 28 29  1  0
 29 30  1  0
 30 31  2  0
 30 32  1  0
 32 33  1  0
 33 34  2  0
 26 35  1  0
 35 36  2  0
  5 37  1  0
 37 38  2  0
 38  3  1  0
 14  9  1  0
 23 18  1  0
 33 27  1  0
 35 21  1  0
  1 39  1  0
  1 40  1  0
  1 41  1  0
  2 42  1  0
  2 43  1  0
  4 44  1  0
 10 45  1  0
 11 46  1  0
 13 47  1  0
 17 48  1  0
 19 49  1  0
 20 50  1  0
 23 51  1  0
 27 52  1  1
 28 53  1  0
 28 54  1  0
 29 55  1  0
 29 56  1  0
 32 57  1  0
 37 58  1  0
M  END
>  <meeko>  (464) 
{"is_sidechain": [true], "free_energy": -12.48, "intermolecular_energy": 0.0, "internal_energy": -12.48, "cluster_size": 20, "cluster_id": 1, "rank_in_cluster": 1}

>  <_RMSD_MCS_to_ref>  (464) 
0.8358891224319162

$$$$
ligand
     RDKit          3D

 60 64  0  0  0  0  0  0  0  0999 V2000
   24.8540    9.4020    7.6050 C   0  0  0  0  0  0  0  0  0  0  0  0
   25.5230   10.7550    7.4270 C   0  0  0  0  0  0  0  0  0  0  0  0
   27.0070   10.6560    7.4550 C   0  0  0  0  0  0  0  0  0  0  0  0
   27.9480   11.6200    7.1450 C   0  0  0  0  0  0  0  0  0  0  0  0
   29.1450   10.9890    7.3260 N   0  0  0  0  0  0  0  0  0  0  0  0
   30.6600   11.7130    7.2880 S   0  0  0  0  0  6  0  0  0  0  0  0
   30.8620   12.1550    5.9220 O   0  0  0  0  0  0  0  0  0  0  0  0
   31.5540   10.7740    7.9390 O   0  0  0  0  0  0  0  0  0  0  0  0
   30.4740   13.1380    8.3200 C   0  0  0  0  0  0  0  0  0  0  0  0
   31.6000   13.8060    8.7980 C   0  0  0  0  0  0  0  0  0  0  0  0
   31.4310   14.9180    9.6190 C   0  0  0  0  0  0  0  0  0  0  0  0
   30.1450   15.3610    9.9490 C   0  0  0  0  0  0  0  0  0  0  0  0
   28.9940   14.7140    9.4590 C   0  0  0  0  0  0  0  0  0  0  0  0
   27.6300   15.1690    9.7960 C   0  0  0  0  0  0  0  0  0  0  0  0
   27.3670   16.1640   10.7190 C   0  0  0  0  0  0  0  0  0  0  0  0
   26.0380   16.5210   10.9590 C   0  0  0  0  0  0  0  0  0  0  0  0
   25.8390   17.6260   11.9220 C   0  0  0  0  0  0  0  0  0  0  0  0
   25.5700   18.7510   11.5210 O   0  0  0  0  0  0  0  0  0  0  0  0
   25.9110   17.2860   13.2520 N   0  0  0  0  0  0  0  0  0  0  0  0
   25.8090   18.2870   14.3020 C   0  0  1  0  0  0  0  0  0  0  0  0
   26.0530   17.6910   15.6850 C   0  0  0  0  0  0  0  0  0  0  0  0
   25.9620   18.7880   16.7320 C   0  0  0  0  0  0  0  0  0  0  0  0
   26.9170   19.9190   16.4280 C   0  0  0  0  0  0  0  0  0  0  0  0
   27.4740   20.5660   17.3090 O   0  0  0  0  0  0  0  0  0  0  0  0
   27.1170   20.2140   15.1030 N   0  0  0  0  0  0  0  0  0  0  0  0
   26.8400   19.3880   14.0420 C   0  0  0  0  0  0  0  0  0  0  0  0
   27.3900   19.5460   12.9520 O   0  0  0  0  0  0  0  0  0  0  0  0
   24.9740   15.8550   10.3120 C   0  0  0  0  0  0  0  0  0  0  0  0
   23.5920   16.0850   10.5450 C   0  0  0  0  0  0  0  0  0  0  0  0
   22.6150   15.3820    9.8420 C   0  0  0  0  0  0  0  0  0  0  0  0
   22.9980   14.4340    8.9060 C   0  0  0  0  0  0  0  0  0  0  0  0
   24.3540   14.1860    8.6890 C   0  0  0  0  0  0  0  0  0  0  0  0
   25.3470   14.8700    9.3780 C   0  0  0  0  0  0  0  0  0  0  0  0
   26.6280   14.5520    9.1210 N   0  0  0  0  0  0  0  0  0  0  0  0
   29.1860   13.5900    8.6330 C   0  0  0  0  0  0  0  0  0  0  0  0
   28.9200    9.7260    7.7700 C   0  0  0  0  0  0  0  0  0  0  0  0
   27.6270    9.4850    7.8460 N   0  0  0  0  0  0  0  0  0  0  0  0
   24.7464    9.1845    8.6779 H   0  0  0  0  0  0  0  0  0  0  0  0
   23.8606    9.4192    7.1330 H   0  0  0  0  0  0  0  0  0  0  0  0
   25.4708    8.6230    7.1330 H   0  0  0  0  0  0  0  0  0  0  0  0
   25.2144   11.1783    6.4597 H   0  0  0  0  0  0  0  0  0  0  0  0
   25.2116   11.3984    8.2631 H   0  0  0  0  0  0  0  0  0  0  0  0
   27.7725   12.6579    6.8256 H   0  0  0  0  0  0  0  0  0  0  0  0
   32.6090   13.4593    8.5302 H   0  0  0  0  0  0  0  0  0  0  0  0
   32.3111   15.4500   10.0095 H   0  0  0  0  0  0  0  0  0  0  0  0
   30.0306   16.2353   10.6067 H   0  0  0  0  0  0  0  0  0  0  0  0
   28.1877   16.6645   11.2537 H   0  0  0  0  0  0  0  0  0  0  0  0
   26.0404   16.2976   13.5113 H   0  0  0  0  0  0  0  0  0  0  0  0
   24.7871   18.6937   14.2854 H   0  0  0  0  0  0  0  0  0  0  0  0
   25.2939   16.9224   15.8922 H   0  0  0  0  0  0  0  0  0  0  0  0
   27.0538   17.2356   15.7168 H   0  0  0  0  0  0  0  0  0  0  0  0
   24.9350   19.1815   16.7501 H   0  0  0  0  0  0  0  0  0  0  0  0
   26.2321   18.3590   17.7082 H   0  0  0  0  0  0  0  0  0  0  0  0
   27.5111   21.1401   14.8843 H   0  0  0  0  0  0  0  0  0  0  0  0
   23.2872   16.8312   11.2935 H   0  0  0  0  0  0  0  0  0  0  0  0
   21.5488   15.5779   10.0285 H   0  0  0  0  0  0  0  0  0  0  0  0
   22.2368   13.8800    8.3371 H   0  0  0  0  0  0  0  0  0  0  0  0
   24.6453   13.4255    7.9496 H   0  0  0  0  0  0  0  0  0  0  0  0
   28.3118   13.0593    8.2278 H   0  0  0  0  0  0  0  0  0  0  0  0
   29.7080    9.0040    8.0302 H   0  0  0  0  0  0  0  0  0  0  0  0
  1  2  1  0
  2  3  1  0
  3  4  2  0
  4  5  1  0
  5  6  1  0
  6  7  2  0
  6  8  2  0
  6  9  1  0
  9 10  2  0
 10 11  1  0
 11 12  2  0
 12 13  1  0
 13 14  1  0
 14 15  2  0
 15 16  1  0
 16 17  1  0
 17 18  2  0
 17 19  1  0
 19 20  1  0
 20 21  1  0
 21 22  1  0
 22 23  1  0
 23 24  2  0
 23 25  1  0
 25 26  1  0
 26 27  2  0
 16 28  2  0
 28 29  1  0
 29 30  2  0
 30 31  1  0
 31 32  2  0
 32 33  1  0
 33 34  2  0
 13 35  2  0
  5 36  1  0
 36 37  2  0
 37  3  1  0
 35  9  1  0
 34 14  1  0
 26 20  1  0
 33 28  1  0
  1 38  1  0
  1 39  1  0
  1 40  1  0
  2 41  1  0
  2 42  1  0
  4 43  1  0
 10 44  1  0
 11 45  1  0
 12 46  1  0
 15 47  1  0
 19 48  1  0
 20 49  1  1
 21 50  1  0
 21 51  1  0
 22 52  1  0
 22 53  1  0
 25 54  1  0
 29 55  1  0
 30 56  1  0
 31 57  1  0
 32 58  1  0
 35 59  1  0
 36 60  1  0
M  END
>  <meeko>  (465) 
{"is_sidechain": [true], "free_energy": -12.45, "intermolecular_energy": 0.0, "internal_energy": -12.45, "cluster_size": 8, "cluster_id": 1, "rank_in_cluster": 1}

>  <_RMSD_MCS_to_ref>  (465) 
1.3619680205088838

$$$$
ligand
     RDKit          3D

 54 57  0  0  0  0  0  0  0  0999 V2000
   24.8540    9.4020    7.6050 C   0  0  0  0  0  0  0  0  0  0  0  0
   25.5230   10.7550    7.4270 C   0  0  0  0  0  0  0  0  0  0  0  0
   27.0080   10.6560    7.4450 C   0  0  0  0  0  0  0  0  0  0  0  0
   27.9410   11.6040    7.0720 C   0  0  0  0  0  0  0  0  0  0  0  0
   29.1440   10.9920    7.2760 N   0  0  0  0  0  0  0  0  0  0  0  0
   30.6460   11.7540    7.2480 S   0  0  0  0  0  6  0  0  0  0  0  0
   30.8320   12.1510    5.8650 O   0  0  0  0  0  0  0  0  0  0  0  0
   31.5640   10.8720    7.9380 O   0  0  0  0  0  0  0  0  0  0  0  0
   30.4190   13.2110    8.2290 C   0  0  0  0  0  0  0  0  0  0  0  0
   31.5240   13.9730    8.6020 C   0  0  0  0  0  0  0  0  0  0  0  0
   31.3240   15.1450    9.3240 C   0  0  0  0  0  0  0  0  0  0  0  0
   30.0280   15.5570    9.6640 C   0  0  0  0  0  0  0  0  0  0  0  0
   28.9000   14.7970    9.3050 C   0  0  0  0  0  0  0  0  0  0  0  0
   27.5580   15.2120    9.6000 N   0  0  0  0  0  0  0  0  0  0  0  0
   26.4360   14.7210    8.9570 C   0  0  0  0  0  0  0  0  0  0  0  0
   25.1780   15.0180    9.2850 C   0  0  0  0  0  0  0  0  0  0  0  0
   25.0220   15.9180   10.4350 C   0  0  0  0  0  0  0  0  0  0  0  0
   23.9340   16.1020   10.9560 O   0  0  0  0  0  0  0  0  0  0  0  0
   26.2810   16.5580   10.9700 C   0  0  0  0  0  0  0  0  0  0  0  0
   26.2540   17.6670   12.0060 C   0  0  0  0  0  0  0  0  0  0  0  0
   27.1510   18.4920   12.0590 O   0  0  0  0  0  0  0  0  0  0  0  0
   25.1770   17.5980   12.8750 N   0  0  0  0  0  0  0  0  0  0  0  0
   25.2190   18.3240   14.1350 C   0  0  1  0  0  0  0  0  0  0  0  0
   26.2750   17.7350   15.0610 C   0  0  0  0  0  0  0  0  0  0  0  0
   26.3310   18.5360   16.3510 C   0  0  0  0  0  0  0  0  0  0  0  0
   26.5700   20.0030   16.0820 C   0  0  0  0  0  0  0  0  0  0  0  0
   27.2010   20.7170   16.8570 O   0  0  0  0  0  0  0  0  0  0  0  0
   26.0010   20.5200   14.9460 N   0  0  0  0  0  0  0  0  0  0  0  0
   25.5330   19.8060   13.8680 C   0  0  0  0  0  0  0  0  0  0  0  0
   25.3630   20.3530   12.7790 O   0  0  0  0  0  0  0  0  0  0  0  0
   27.4670   16.1800   10.5720 N   0  0  0  0  0  0  0  0  0  0  0  0
   29.1260   13.6030    8.5960 C   0  0  0  0  0  0  0  0  0  0  0  0
   28.9280    9.7440    7.7670 C   0  0  0  0  0  0  0  0  0  0  0  0
   27.6370    9.5100    7.8940 N   0  0  0  0  0  0  0  0  0  0  0  0
   24.7464    9.1845    8.6779 H   0  0  0  0  0  0  0  0  0  0  0  0
   23.8606    9.4192    7.1330 H   0  0  0  0  0  0  0  0  0  0  0  0
   25.4708    8.6230    7.1330 H   0  0  0  0  0  0  0  0  0  0  0  0
   25.2083   11.1815    6.4631 H   0  0  0  0  0  0  0  0  0  0  0  0
   25.2176   11.3953    8.2676 H   0  0  0  0  0  0  0  0  0  0  0  0
   27.7564   12.6211    6.6960 H   0  0  0  0  0  0  0  0  0  0  0  0
   32.5403   13.6524    8.3294 H   0  0  0  0  0  0  0  0  0  0  0  0
   32.1885   15.7525    9.6301 H   0  0  0  0  0  0  0  0  0  0  0  0
   29.8902   16.4942   10.2232 H   0  0  0  0  0  0  0  0  0  0  0  0
   26.5932   14.0344    8.1121 H   0  0  0  0  0  0  0  0  0  0  0  0
   24.3161   14.6163    8.7320 H   0  0  0  0  0  0  0  0  0  0  0  0
   24.3500   17.0350   12.6299 H   0  0  0  0  0  0  0  0  0  0  0  0
   24.2371   18.2362   14.6230 H   0  0  0  0  0  0  0  0  0  0  0  0
   26.0182   16.6903   15.2904 H   0  0  0  0  0  0  0  0  0  0  0  0
   27.2562   17.7745   14.5654 H   0  0  0  0  0  0  0  0  0  0  0  0
   25.3759   18.4214   16.8846 H   0  0  0  0  0  0  0  0  0  0  0  0
   27.1664   18.1558   16.9572 H   0  0  0  0  0  0  0  0  0  0  0  0
   25.9158   21.5452   14.8954 H   0  0  0  0  0  0  0  0  0  0  0  0
   28.2712   12.9658    8.3251 H   0  0  0  0  0  0  0  0  0  0  0  0
   29.7217    9.0269    8.0235 H   0  0  0  0  0  0  0  0  0  0  0  0
  1  2  1  0
  2  3  1  0
  3  4  2  0
  4  5  1  0
  5  6  1  0
  6  7  2  0
  6  8  2  0
  6  9  1  0
  9 10  2  0
 10 11  1  0
 11 12  2  0
 12 13  1  0
 13 14  1  0
 14 15  1  0
 15 16  2  0
 16 17  1  0
 17 18  2  0
 17 19  1  0
 19 20  1  0
 20 21  2  0
 20 22  1  0
 22 23  1  0
 23 24  1  0
 24 25  1  0
 25 26  1  0
 26 27  2  0
 26 28  1  0
 28 29  1  0
 29 30  2  0
 19 31  2  0
 13 32  2  0
  5 33  1  0
 33 34  2  0
 34  3  1  0
 32  9  1  0
 31 14  1  0
 29 23  1  0
  1 35  1  0
  1 36  1  0
  1 37  1  0
  2 38  1  0
  2 39  1  0
  4 40  1  0
 10 41  1  0
 11 42  1  0
 12 43  1  0
 15 44  1  0
 16 45  1  0
 22 46  1  0
 23 47  1  1
 24 48  1  0
 24 49  1  0
 25 50  1  0
 25 51  1  0
 28 52  1  0
 32 53  1  0
 33 54  1  0
M  END
>  <meeko>  (466) 
{"is_sidechain": [true], "free_energy": -12.44, "intermolecular_energy": 0.0, "internal_energy": -12.44, "cluster_size": 12, "cluster_id": 1, "rank_in_cluster": 1}

>  <_RMSD_MCS_to_ref>  (466) 
0.6961400721119273

$$$$
ligand
     RDKit          3D

 48 51  0  0  0  0  0  0  0  0999 V2000
   24.8710    9.6160    7.7820 C   0  0  0  0  0  0  0  0  0  0  0  0
   25.4240   10.9650    7.3490 C   0  0  0  0  0  0  0  0  0  0  0  0
   26.5470   11.4170    8.2140 C   0  0  0  0  0  0  0  0  0  0  0  0
   27.4820   12.4060    7.9790 C   0  0  0  0  0  0  0  0  0  0  0  0
   28.2830   12.3790    9.0830 N   0  0  0  0  0  0  0  0  0  0  0  0
   29.4730   13.5040    9.4890 S   0  0  0  0  0  6  0  0  0  0  0  0
   30.4660   13.4110    8.4360 O   0  0  0  0  0  0  0  0  0  0  0  0
   29.8080   13.1830   10.8660 O   0  0  0  0  0  0  0  0  0  0  0  0
   28.7610   14.9790    9.4760 O   0  0  0  0  0  0  0  0  0  0  0  0
   27.4690   15.1980    9.7140 C   0  0  0  0  0  0  0  0  0  0  0  0
   26.2870   14.7460    9.1550 C   0  0  0  0  0  0  0  0  0  0  0  0
   25.2170   15.3450    9.8610 C   0  0  0  0  0  0  0  0  0  0  0  0
   23.8850   15.2070    9.6940 N   0  0  0  0  0  0  0  0  0  0  0  0
   23.1550   15.9360   10.5520 C   0  0  0  0  0  0  0  0  0  0  0  0
   23.5950   16.7580   11.5240 N   0  0  0  0  0  0  0  0  0  0  0  0
   24.9370   16.8790   11.6680 C   0  0  0  0  0  0  0  0  0  0  0  0
   25.4660   17.7720   12.7290 C   0  0  0  0  0  0  0  0  0  0  0  0
   26.6260   18.1690   12.6980 O   0  0  0  0  0  0  0  0  0  0  0  0
   24.5670   18.0910   13.7180 N   0  0  0  0  0  0  0  0  0  0  0  0
   24.9450   18.8210   14.9160 C   0  0  1  0  0  0  0  0  0  0  0  0
   25.9380   18.0400   15.7710 C   0  0  0  0  0  0  0  0  0  0  0  0
   26.3120   18.8630   16.9930 C   0  0  0  0  0  0  0  0  0  0  0  0
   26.8520   20.2180   16.6000 C   0  0  0  0  0  0  0  0  0  0  0  0
   27.7200   20.7940   17.2490 O   0  0  0  0  0  0  0  0  0  0  0  0
   26.2990   20.7990   15.4880 N   0  0  0  0  0  0  0  0  0  0  0  0
   25.5740   20.1590   14.5130 C   0  0  0  0  0  0  0  0  0  0  0  0
   25.4370   20.6580   13.3970 O   0  0  0  0  0  0  0  0  0  0  0  0
   25.7660   16.1630   10.8280 C   0  0  0  0  0  0  0  0  0  0  0  0
   27.1300   16.0730   10.7200 N   0  0  0  0  0  0  0  0  0  0  0  0
   27.8080   11.4540    9.9560 C   0  0  0  0  0  0  0  0  0  0  0  0
   26.7580   10.8400    9.4510 N   0  0  0  0  0  0  0  0  0  0  0  0
   24.8497    9.5640    8.8806 H   0  0  0  0  0  0  0  0  0  0  0  0
   23.8507    9.4948    7.3893 H   0  0  0  0  0  0  0  0  0  0  0  0
   25.5127    8.8135    7.3893 H   0  0  0  0  0  0  0  0  0  0  0  0
   25.7855   10.8836    6.3133 H   0  0  0  0  0  0  0  0  0  0  0  0
   24.6141   11.7045    7.4339 H   0  0  0  0  0  0  0  0  0  0  0  0
   27.5624   13.0650    7.1019 H   0  0  0  0  0  0  0  0  0  0  0  0
   26.1953   14.0456    8.3118 H   0  0  0  0  0  0  0  0  0  0  0  0
   22.0631   15.8520   10.4489 H   0  0  0  0  0  0  0  0  0  0  0  0
   23.5852   17.8008   13.6055 H   0  0  0  0  0  0  0  0  0  0  0  0
   24.0358   18.9813   15.5140 H   0  0  0  0  0  0  0  0  0  0  0  0
   25.4795   17.0933   16.0929 H   0  0  0  0  0  0  0  0  0  0  0  0
   26.8420   17.8279   15.1813 H   0  0  0  0  0  0  0  0  0  0  0  0
   25.4179   19.0016   17.6186 H   0  0  0  0  0  0  0  0  0  0  0  0
   27.0957   18.3249   17.5465 H   0  0  0  0  0  0  0  0  0  0  0  0
   26.4410   21.8127   15.3729 H   0  0  0  0  0  0  0  0  0  0  0  0
   27.8031   16.5861   11.3069 H   0  0  0  0  0  0  0  0  0  0  0  0
   28.2396   11.2465   10.9463 H   0  0  0  0  0  0  0  0  0  0  0  0
  1  2  1  0
  2  3  1  0
  3  4  2  0
  4  5  1  0
  5  6  1  0
  6  7  2  0
  6  8  2  0
  6  9  1  0
  9 10  1  0
 10 11  2  0
 11 12  1  0
 12 13  2  0
 13 14  1  0
 14 15  2  0
 15 16  1  0
 16 17  1  0
 17 18  2  0
 17 19  1  0
 19 20  1  0
 20 21  1  0
 21 22  1  0
 22 23  1  0
 23 24  2  0
 23 25  1  0
 25 26  1  0
 26 27  2  0
 16 28  2  0
 28 29  1  0
  5 30  1  0
 30 31  2  0
 31  3  1  0
 29 10  1  0
 28 12  1  0
 26 20  1  0
  1 32  1  0
  1 33  1  0
  1 34  1  0
  2 35  1  0
  2 36  1  0
  4 37  1  0
 11 38  1  0
 14 39  1  0
 19 40  1  0
 20 41  1  1
 21 42  1  0
 21 43  1  0
 22 44  1  0
 22 45  1  0
 25 46  1  0
 29 47  1  0
 30 48  1  0
M  END
>  <meeko>  (467) 
{"is_sidechain": [true], "free_energy": -12.43, "intermolecular_energy": 0.0, "internal_energy": -12.43, "cluster_size": 6, "cluster_id": 1, "rank_in_cluster": 1}

>  <_RMSD_MCS_to_ref>  (467) 
0.7362599933296515

$$$$
ligand
     RDKit          3D

 62 67  0  0  0  0  0  0  0  0999 V2000
   24.8710    9.6160    7.7820 C   0  0  0  0  0  0  0  0  0  0  0  0
   25.4240   10.9650    7.3490 C   0  0  0  0  0  0  0  0  0  0  0  0
   26.8250   11.1770    7.8070 C   0  0  0  0  0  0  0  0  0  0  0  0
   27.3040   12.0430    8.7700 C   0  0  0  0  0  0  0  0  0  0  0  0
   28.6470   11.7890    8.8130 N   0  0  0  0  0  0  0  0  0  0  0  0
   29.7890   12.7340    9.6210 S   0  0  0  0  0  6  0  0  0  0  0  0
   29.3550   12.7090   11.0050 O   0  0  0  0  0  0  0  0  0  0  0  0
   31.0710   12.1940    9.2140 O   0  0  0  0  0  0  0  0  0  0  0  0
   29.5870   14.2540    9.0460 O   0  0  0  0  0  0  0  0  0  0  0  0
   28.9950   14.4050    7.8160 C   0  0  0  0  0  0  0  0  0  0  0  0
   27.7100   14.9570    7.7210 C   0  0  0  0  0  0  0  0  0  0  0  0
   26.9320   15.4160    8.8880 C   0  0  0  0  0  0  0  0  0  0  0  0
   25.6700   14.8300    9.1720 C   0  0  0  0  0  0  0  0  0  0  0  0
   24.9150   15.2070   10.2860 C   0  0  0  0  0  0  0  0  0  0  0  0
   25.4470   16.1770   11.1100 C   0  0  0  0  0  0  0  0  0  0  0  0
   26.6710   16.7880   10.8560 C   0  0  0  0  0  0  0  0  0  0  0  0
   27.4160   16.4300    9.7430 C   0  0  0  0  0  0  0  0  0  0  0  0
   26.9660   17.7920   11.9190 C   0  0  0  0  0  0  0  0  0  0  0  0
   25.8640   17.6050   12.8490 N   0  0  0  0  0  0  0  0  0  0  0  0
   25.6720   18.4950   13.9870 C   0  0  2  0  0  0  0  0  0  0  0  0
   26.2400   19.8970   13.7740 C   0  0  0  0  0  0  0  0  0  0  0  0
   25.9370   20.7540   14.9920 C   0  0  0  0  0  0  0  0  0  0  0  0
   26.4810   20.1260   16.2540 C   0  0  0  0  0  0  0  0  0  0  0  0
   26.7170   20.7840   17.2630 O   0  0  0  0  0  0  0  0  0  0  0  0
   26.6200   18.7600   16.2530 N   0  0  0  0  0  0  0  0  0  0  0  0
   26.2300   17.8730   15.2760 C   0  0  0  0  0  0  0  0  0  0  0  0
   26.2340   16.6630   15.4990 O   0  0  0  0  0  0  0  0  0  0  0  0
   24.9030   16.7410   12.3500 C   0  0  0  0  0  0  0  0  0  0  0  0
   23.8090   16.4760   12.8090 O   0  0  0  0  0  0  0  0  0  0  0  0
   27.0780   15.0960    6.5310 N   0  0  0  0  0  0  0  0  0  0  0  0
   27.7450   14.7090    5.4190 C   0  0  0  0  0  0  0  0  0  0  0  0
   29.0380   14.1850    5.4100 C   0  0  0  0  0  0  0  0  0  0  0  0
   29.6830   13.8170    4.2150 C   0  0  0  0  0  0  0  0  0  0  0  0
   30.9780   13.3020    4.2390 C   0  0  0  0  0  0  0  0  0  0  0  0
   31.6400   13.1520    5.4520 C   0  0  0  0  0  0  0  0  0  0  0  0
   31.0080   13.5140    6.6430 C   0  0  0  0  0  0  0  0  0  0  0  0
   29.6930   14.0310    6.6470 C   0  0  0  0  0  0  0  0  0  0  0  0
   28.9530   10.8640    7.8680 C   0  0  0  0  0  0  0  0  0  0  0  0
   27.8630   10.4640    7.2440 N   0  0  0  0  0  0  0  0  0  0  0  0
   24.8497    9.5640    8.8806 H   0  0  0  0  0  0  0  0  0  0  0  0
   23.8507    9.4948    7.3893 H   0  0  0  0  0  0  0  0  0  0  0  0
   25.5127    8.8135    7.3893 H   0  0  0  0  0  0  0  0  0  0  0  0
   25.3989   11.0212    6.2507 H   0  0  0  0  0  0  0  0  0  0  0  0
   24.7994   11.7463    7.8066 H   0  0  0  0  0  0  0  0  0  0  0  0
   26.7350   12.7712    9.3666 H   0  0  0  0  0  0  0  0  0  0  0  0
   25.2754   14.0573    8.4958 H   0  0  0  0  0  0  0  0  0  0  0  0
   23.9372   14.7493   10.4970 H   0  0  0  0  0  0  0  0  0  0  0  0
   28.3722   16.9297    9.5287 H   0  0  0  0  0  0  0  0  0  0  0  0
   27.9324   17.5858   12.4023 H   0  0  0  0  0  0  0  0  0  0  0  0
   27.0462   18.8208   11.5380 H   0  0  0  0  0  0  0  0  0  0  0  0
   24.5836   18.6178   14.0889 H   0  0  0  0  0  0  0  0  0  0  0  0
   27.3289   19.8342   13.6310 H   0  0  0  0  0  0  0  0  0  0  0  0
   25.7798   20.3487   12.8828 H   0  0  0  0  0  0  0  0  0  0  0  0
   26.3973   21.7439   14.8571 H   0  0  0  0  0  0  0  0  0  0  0  0
   24.8451   20.8429   15.0911 H   0  0  0  0  0  0  0  0  0  0  0  0
   27.0704   18.3499   17.0836 H   0  0  0  0  0  0  0  0  0  0  0  0
   27.2307   14.8152    4.4525 H   0  0  0  0  0  0  0  0  0  0  0  0
   29.1611   13.9367    3.2541 H   0  0  0  0  0  0  0  0  0  0  0  0
   31.4748   13.0150    3.3005 H   0  0  0  0  0  0  0  0  0  0  0  0
   32.6628   12.7477    5.4735 H   0  0  0  0  0  0  0  0  0  0  0  0
   31.5438   13.3945    7.5962 H   0  0  0  0  0  0  0  0  0  0  0  0
   29.9683   10.4993    7.6530 H   0  0  0  0  0  0  0  0  0  0  0  0
  1  2  1  0
  2  3  1  0
  3  4  2  0
  4  5  1  0
  5  6  1  0
  6  7  2  0
  6  8  2  0
  6  9  1  0
  9 10  1  0
 10 11  1  0
 11 12  1  0
 12 13  2  0
 13 14  1  0
 14 15  2  0
 15 16  1  0
 16 17  2  0
 16 18  1  0
 18 19  1  0
 19 20  1  0
 20 21  1  0
 21 22  1  0
 22 23  1  0
 23 24  2  0
 23 25  1  0
 25 26  1  0
 26 27  2  0
 19 28  1  0
 28 29  2  0
 11 30  2  0
 30 31  1  0
 31 32  2  0
 32 33  1  0
 33 34  2  0
 34 35  1  0
 35 36  2  0
 36 37  1  0
  5 38  1  0
 38 39  2  0
 39  3  1  0
 37 10  2  0
 17 12  1  0
 26 20  1  0
 37 32  1  0
 28 15  1  0
  1 40  1  0
  1 41  1  0
  1 42  1  0
  2 43  1  0
  2 44  1  0
  4 45  1  0
 13 46  1  0
 14 47  1  0
 17 48  1  0
 18 49  1  0
 18 50  1  0
 20 51  1  1
 21 52  1  0
 21 53  1  0
 22 54  1  0
 22 55  1  0
 25 56  1  0
 31 57  1  0
 33 58  1  0
 34 59  1  0
 35 60  1  0
 36 61  1  0
 38 62  1  0
M  END
>  <meeko>  (468) 
{"is_sidechain": [true], "free_energy": -12.42, "intermolecular_energy": 0.0, "internal_energy": -12.42, "cluster_size": 7, "cluster_id": 1, "rank_in_cluster": 1}

>  <_RMSD_MCS_to_ref>  (468) 
1.993874527541527

$$$$
ligand
     RDKit          3D

 61 66  0  0  0  0  0  0  0  0999 V2000
   24.8710    9.6160    7.7820 C   0  0  0  0  0  0  0  0  0  0  0  0
   25.4240   10.9650    7.3490 C   0  0  0  0  0  0  0  0  0  0  0  0
   26.9080   11.0240    7.4490 C   0  0  0  0  0  0  0  0  0  0  0  0
   27.7110   12.1150    7.7180 C   0  0  0  0  0  0  0  0  0  0  0  0
   28.9790   11.6090    7.7000 N   0  0  0  0  0  0  0  0  0  0  0  0
   30.4150   12.4680    7.9210 S   0  0  0  0  0  6  0  0  0  0  0  0
   31.4780   11.5950    7.4530 O   0  0  0  0  0  0  0  0  0  0  0  0
   30.3570   12.8710    9.3150 O   0  0  0  0  0  0  0  0  0  0  0  0
   30.4070   13.8270    7.0240 O   0  0  0  0  0  0  0  0  0  0  0  0
   29.2070   14.4000    6.7020 C   0  0  0  0  0  0  0  0  0  0  0  0
   28.9200   14.6200    5.3710 C   0  0  0  0  0  0  0  0  0  0  0  0
   27.7230   15.2730    5.0510 C   0  0  0  0  0  0  0  0  0  0  0  0
   27.3530   15.5350    3.7300 C   0  0  0  0  0  0  0  0  0  0  0  0
   26.2220   16.1760    3.3640 N   0  0  0  0  0  0  0  0  0  0  0  0
   25.4100   16.5880    4.3570 C   0  0  0  0  0  0  0  0  0  0  0  0
   25.6750   16.3820    5.7000 C   0  0  0  0  0  0  0  0  0  0  0  0
   26.8540   15.7010    6.0740 C   0  0  0  0  0  0  0  0  0  0  0  0
   27.2520   15.4250    7.4010 C   0  0  0  0  0  0  0  0  0  0  0  0
   26.4780   15.7900    8.5980 C   0  0  0  0  0  0  0  0  0  0  0  0
   25.1760   15.2720    8.8160 C   0  0  0  0  0  0  0  0  0  0  0  0
   24.4600   15.5720    9.9790 C   0  0  0  0  0  0  0  0  0  0  0  0
   25.0740   16.3820   10.9130 C   0  0  0  0  0  0  0  0  0  0  0  0
   26.3500   16.9040   10.7300 C   0  0  0  0  0  0  0  0  0  0  0  0
   27.0620   16.6160    9.5800 C   0  0  0  0  0  0  0  0  0  0  0  0
   26.7370   17.7360   11.9050 C   0  0  0  0  0  0  0  0  0  0  0  0
   25.6170   17.5380   12.8160 N   0  0  0  0  0  0  0  0  0  0  0  0
   25.4770   18.3360   14.0280 C   0  0  2  0  0  0  0  0  0  0  0  0
   26.2110   19.6760   13.9690 C   0  0  0  0  0  0  0  0  0  0  0  0
   25.9500   20.4490   15.2530 C   0  0  0  0  0  0  0  0  0  0  0  0
   26.3620   19.6500   16.4680 C   0  0  0  0  0  0  0  0  0  0  0  0
   26.6480   20.1840   17.5360 O   0  0  0  0  0  0  0  0  0  0  0  0
   26.3240   18.2830   16.3480 N   0  0  0  0  0  0  0  0  0  0  0  0
   25.9060   17.5390   15.2690 C   0  0  0  0  0  0  0  0  0  0  0  0
   25.7960   16.3170   15.3630 O   0  0  0  0  0  0  0  0  0  0  0  0
   24.5820   16.8310   12.2200 C   0  0  0  0  0  0  0  0  0  0  0  0
   23.4680   16.6100   12.6500 O   0  0  0  0  0  0  0  0  0  0  0  0
   28.4190   14.8000    7.7070 N   0  0  0  0  0  0  0  0  0  0  0  0
   28.9270   10.2850    7.4020 C   0  0  0  0  0  0  0  0  0  0  0  0
   27.6770    9.8890    7.2630 N   0  0  0  0  0  0  0  0  0  0  0  0
   24.8497    9.5640    8.8806 H   0  0  0  0  0  0  0  0  0  0  0  0
   23.8507    9.4948    7.3893 H   0  0  0  0  0  0  0  0  0  0  0  0
   25.5127    8.8135    7.3893 H   0  0  0  0  0  0  0  0  0  0  0  0
   25.1320   11.1486    6.3045 H   0  0  0  0  0  0  0  0  0  0  0  0
   25.0100   11.7307    8.0216 H   0  0  0  0  0  0  0  0  0  0  0  0
   27.4002   13.1536    7.9041 H   0  0  0  0  0  0  0  0  0  0  0  0
   29.6126   14.2915    4.5821 H   0  0  0  0  0  0  0  0  0  0  0  0
   28.0299   15.1956    2.9321 H   0  0  0  0  0  0  0  0  0  0  0  0
   24.4849   17.1176    4.0854 H   0  0  0  0  0  0  0  0  0  0  0  0
   24.9750   16.7447    6.4671 H   0  0  0  0  0  0  0  0  0  0  0  0
   24.7203   14.6213    8.0551 H   0  0  0  0  0  0  0  0  0  0  0  0
   23.4463   15.1777   10.1433 H   0  0  0  0  0  0  0  0  0  0  0  0
   28.0719   17.0265    9.4332 H   0  0  0  0  0  0  0  0  0  0  0  0
   27.6785   17.3816   12.3500 H   0  0  0  0  0  0  0  0  0  0  0  0
   26.9160   18.7919   11.6540 H   0  0  0  0  0  0  0  0  0  0  0  0
   24.4058   18.5738   14.1057 H   0  0  0  0  0  0  0  0  0  0  0  0
   27.2911   19.4988   13.8598 H   0  0  0  0  0  0  0  0  0  0  0  0
   25.8482   20.2574   13.1086 H   0  0  0  0  0  0  0  0  0  0  0  0
   26.5239   21.3871   15.2295 H   0  0  0  0  0  0  0  0  0  0  0  0
   24.8715   20.6544   15.3217 H   0  0  0  0  0  0  0  0  0  0  0  0
   26.6484   17.7486   17.1666 H   0  0  0  0  0  0  0  0  0  0  0  0
   29.8061    9.6331    7.2918 H   0  0  0  0  0  0  0  0  0  0  0  0
  1  2  1  0
  2  3  1  0
  3  4  2  0
  4  5  1  0
  5  6  1  0
  6  7  2  0
  6  8  2  0
  6  9  1  0
  9 10  1  0
 10 11  2  0
 11 12  1  0
 12 13  2  0
 13 14  1  0
 14 15  2  0
 15 16  1  0
 16 17  2  0
 17 18  1  0
 18 19  1  0
 19 20  2  0
 20 21  1  0
 21 22  2  0
 22 23  1  0
 23 24  2  0
 23 25  1  0
 25 26  1  0
 26 27  1  0
 27 28  1  0
 28 29  1  0
 29 30  1  0
 30 31  2  0
 30 32  1  0
 32 33  1  0
 33 34  2  0
 26 35  1  0
 35 36  2  0
 18 37  2  0
  5 38  1  0
 38 39  2  0
 39  3  1  0
 37 10  1  0
 17 12  1  0
 24 19  1  0
 33 27  1  0
 35 22  1  0
  1 40  1  0
  1 41  1  0
  1 42  1  0
  2 43  1  0
  2 44  1  0
  4 45  1  0
 11 46  1  0
 13 47  1  0
 15 48  1  0
 16 49  1  0
 20 50  1  0
 21 51  1  0
 24 52  1  0
 25 53  1  0
 25 54  1  0
 27 55  1  1
 28 56  1  0
 28 57  1  0
 29 58  1  0
 29 59  1  0
 32 60  1  0
 38 61  1  0
M  END
>  <meeko>  (469) 
{"is_sidechain": [true], "free_energy": -12.42, "intermolecular_energy": 0.0, "internal_energy": -12.42, "cluster_size": 18, "cluster_id": 1, "rank_in_cluster": 1}

>  <_RMSD_MCS_to_ref>  (469) 
1.8472507167480858

$$$$
ligand
     RDKit          3D

 56 60  0  0  0  0  0  0  0  0999 V2000
   24.8540    9.4020    7.6050 C   0  0  0  0  0  0  0  0  0  0  0  0
   25.5230   10.7550    7.4270 C   0  0  0  0  0  0  0  0  0  0  0  0
   25.2980   11.3190    6.0680 C   0  0  0  0  0  0  0  0  0  0  0  0
   25.8340   12.4580    5.5000 C   0  0  0  0  0  0  0  0  0  0  0  0
   25.2600   12.5160    4.2620 N   0  0  0  0  0  0  0  0  0  0  0  0
   25.7130   13.5560    3.0150 S   0  0  0  0  0  6  0  0  0  0  0  0
   24.5390   13.6510    2.1670 O   0  0  0  0  0  0  0  0  0  0  0  0
   26.9660   13.0190    2.5190 O   0  0  0  0  0  0  0  0  0  0  0  0
   25.9890   15.0020    3.7110 O   0  0  0  0  0  0  0  0  0  0  0  0
   25.6720   15.2490    5.0180 C   0  0  0  0  0  0  0  0  0  0  0  0
   26.6900   15.7780    5.8020 C   0  0  0  0  0  0  0  0  0  0  0  0
   26.4560   16.0600    7.1490 C   0  0  0  0  0  0  0  0  0  0  0  0
   25.1980   15.8070    7.6940 C   0  0  0  0  0  0  0  0  0  0  0  0
   24.8590   16.0720    9.1090 C   0  0  0  0  0  0  0  0  0  0  0  0
   23.6700   15.5340    9.6760 C   0  0  0  0  0  0  0  0  0  0  0  0
   23.2980   15.7590   11.0100 C   0  0  0  0  0  0  0  0  0  0  0  0
   24.1330   16.5290   11.7930 C   0  0  0  0  0  0  0  0  0  0  0  0
   25.3020   17.0530   11.2540 C   0  0  0  0  0  0  0  0  0  0  0  0
   25.6870   16.8490    9.9400 C   0  0  0  0  0  0  0  0  0  0  0  0
   25.9840   17.8180   12.3020 C   0  0  0  0  0  0  0  0  0  0  0  0
   26.9950   18.4720   12.1310 O   0  0  0  0  0  0  0  0  0  0  0  0
   25.2440   17.6560   13.4640 N   0  0  0  0  0  0  0  0  0  0  0  0
   25.4500   18.4280   14.6840 C   0  0  1  0  0  0  0  0  0  0  0  0
   26.5720   17.8910   15.5710 C   0  0  0  0  0  0  0  0  0  0  0  0
   26.6590   18.7280   16.8370 C   0  0  0  0  0  0  0  0  0  0  0  0
   26.8680   20.1890   16.5150 C   0  0  0  0  0  0  0  0  0  0  0  0
   27.3750   20.9700   17.3150 O   0  0  0  0  0  0  0  0  0  0  0  0
   26.3850   20.6290   15.3080 N   0  0  0  0  0  0  0  0  0  0  0  0
   25.6750   19.9160   14.3690 C   0  0  0  0  0  0  0  0  0  0  0  0
   25.1770   20.4880   13.4010 O   0  0  0  0  0  0  0  0  0  0  0  0
   23.9950   16.9470   13.2170 C   0  0  0  0  0  0  0  0  0  0  0  0
   24.1950   15.2990    6.9340 N   0  0  0  0  0  0  0  0  0  0  0  0
   24.4460   15.0300    5.6290 C   0  0  0  0  0  0  0  0  0  0  0  0
   24.4880   11.4150    4.0780 C   0  0  0  0  0  0  0  0  0  0  0  0
   24.4690   10.6780    5.1680 N   0  0  0  0  0  0  0  0  0  0  0  0
   24.7464    9.1845    8.6779 H   0  0  0  0  0  0  0  0  0  0  0  0
   23.8606    9.4192    7.1330 H   0  0  0  0  0  0  0  0  0  0  0  0
   25.4708    8.6230    7.1330 H   0  0  0  0  0  0  0  0  0  0  0  0
   25.1143   11.4531    8.1724 H   0  0  0  0  0  0  0  0  0  0  0  0
   26.6061   10.6163    7.5600 H   0  0  0  0  0  0  0  0  0  0  0  0
   26.5575   13.1581    5.9431 H   0  0  0  0  0  0  0  0  0  0  0  0
   27.6788   15.9743    5.3619 H   0  0  0  0  0  0  0  0  0  0  0  0
   27.2577   16.4784    7.7753 H   0  0  0  0  0  0  0  0  0  0  0  0
   23.0159   14.9166    9.0428 H   0  0  0  0  0  0  0  0  0  0  0  0
   22.3692   15.3345   11.4189 H   0  0  0  0  0  0  0  0  0  0  0  0
   26.6202   17.2850    9.5538 H   0  0  0  0  0  0  0  0  0  0  0  0
   24.5210   18.3188   15.2629 H   0  0  0  0  0  0  0  0  0  0  0  0
   26.3610   16.8446   15.8366 H   0  0  0  0  0  0  0  0  0  0  0  0
   27.5273   17.9450   15.0283 H   0  0  0  0  0  0  0  0  0  0  0  0
   25.7239   18.6164   17.4054 H   0  0  0  0  0  0  0  0  0  0  0  0
   27.5175   18.3761   17.4279 H   0  0  0  0  0  0  0  0  0  0  0  0
   26.5776   21.6140   15.0764 H   0  0  0  0  0  0  0  0  0  0  0  0
   23.8965   16.0741   13.8791 H   0  0  0  0  0  0  0  0  0  0  0  0
   23.1005   17.5579   13.4084 H   0  0  0  0  0  0  0  0  0  0  0  0
   23.6302   14.6140    5.0195 H   0  0  0  0  0  0  0  0  0  0  0  0
   23.9531   11.1727    3.1479 H   0  0  0  0  0  0  0  0  0  0  0  0
  1  2  1  0
  2  3  1  0
  3  4  2  0
  4  5  1  0
  5  6  1  0
  6  7  2  0
  6  8  2  0
  6  9  1  0
  9 10  1  0
 10 11  2  0
 11 12  1  0
 12 13  2  0
 13 14  1  0
 14 15  2  0
 15 16  1  0
 16 17  2  0
 17 18  1  0
 18 19  2  0
 18 20  1  0
 20 21  2  0
 20 22  1  0
 22 23  1  0
 23 24  1  0
 24 25  1  0
 25 26  1  0
 26 27  2  0
 26 28  1  0
 28 29  1  0
 29 30  2  0
 22 31  1  0
 13 32  1  0
 32 33  2  0
  5 34  1  0
 34 35  2  0
 35  3  1  0
 33 10  1  0
 19 14  1  0
 29 23  1  0
 31 17  1  0
  1 36  1  0
  1 37  1  0
  1 38  1  0
  2 39  1  0
  2 40  1  0
  4 41  1  0
 11 42  1  0
 12 43  1  0
 15 44  1  0
 16 45  1  0
 19 46  1  0
 23 47  1  1
 24 48  1  0
 24 49  1  0
 25 50  1  0
 25 51  1  0
 28 52  1  0
 31 53  1  0
 31 54  1  0
 33 55  1  0
 34 56  1  0
M  END
>  <meeko>  (470) 
{"is_sidechain": [true], "free_energy": -12.41, "intermolecular_energy": 0.0, "internal_energy": -12.41, "cluster_size": 20, "cluster_id": 1, "rank_in_cluster": 1}

>  <_RMSD_MCS_to_ref>  (470) 
0.52100383875745

$$$$
ligand
     RDKit          3D

 59 63  0  0  0  0  0  0  0  0999 V2000
   24.8540    9.4020    7.6050 C   0  0  0  0  0  0  0  0  0  0  0  0
   25.5230   10.7550    7.4270 C   0  0  0  0  0  0  0  0  0  0  0  0
   27.0040   10.6690    7.5410 C   0  0  0  0  0  0  0  0  0  0  0  0
   27.9380   11.6860    7.5270 C   0  0  0  0  0  0  0  0  0  0  0  0
   29.1370   11.0420    7.6400 N   0  0  0  0  0  0  0  0  0  0  0  0
   30.6290   11.7830    7.8690 S   0  0  0  0  0  6  0  0  0  0  0  0
   31.0960   12.1180    6.5380 O   0  0  0  0  0  0  0  0  0  0  0  0
   31.3780   10.9270    8.7650 O   0  0  0  0  0  0  0  0  0  0  0  0
   30.2480   13.2820    8.7230 C   0  0  0  0  0  0  0  0  0  0  0  0
   31.2300   14.2520    8.8910 C   0  0  0  0  0  0  0  0  0  0  0  0
   30.8690   15.3970    9.5680 C   0  0  0  0  0  0  0  0  0  0  0  0
   29.6290   15.6170   10.0600 N   0  0  0  0  0  0  0  0  0  0  0  0
   28.6950   14.6570    9.8890 C   0  0  0  0  0  0  0  0  0  0  0  0
   27.4520   14.9910   10.4250 N   0  0  0  0  0  0  0  0  0  0  0  0
   26.5120   15.8460    9.9020 C   0  0  0  0  0  0  0  0  0  0  0  0
   26.6190   16.4900    8.8640 O   0  0  0  0  0  0  0  0  0  0  0  0
   25.2820   16.0170   10.7190 C   0  0  0  0  0  0  0  0  0  0  0  0
   24.0720   15.3750   10.3910 C   0  0  0  0  0  0  0  0  0  0  0  0
   22.9260   15.5410   11.1910 C   0  0  0  0  0  0  0  0  0  0  0  0
   22.9650   16.3500   12.3280 C   0  0  0  0  0  0  0  0  0  0  0  0
   24.1590   16.9840   12.6180 C   0  0  0  0  0  0  0  0  0  0  0  0
   25.3040   16.8410   11.8370 C   0  0  0  0  0  0  0  0  0  0  0  0
   26.4220   17.6390   12.4230 C   0  0  0  0  0  0  0  0  0  0  0  0
   25.7870   18.2840   13.5670 N   0  0  0  0  0  0  0  0  0  0  0  0
   26.5380   18.9490   14.6250 C   0  0  2  0  0  0  0  0  0  0  0  0
   26.3380   18.2920   15.9880 C   0  0  0  0  0  0  0  0  0  0  0  0
   27.2200   18.9840   17.0160 C   0  0  0  0  0  0  0  0  0  0  0  0
   26.9500   20.4710   17.0600 C   0  0  0  0  0  0  0  0  0  0  0  0
   27.0490   21.1270   18.0930 O   0  0  0  0  0  0  0  0  0  0  0  0
   26.6190   21.0720   15.8710 N   0  0  0  0  0  0  0  0  0  0  0  0
   26.1790   20.4410   14.7300 C   0  0  0  0  0  0  0  0  0  0  0  0
   25.5490   21.0650   13.8790 O   0  0  0  0  0  0  0  0  0  0  0  0
   24.4780   17.8670   13.7440 C   0  0  0  0  0  0  0  0  0  0  0  0
   23.7150   18.1480   14.6480 O   0  0  0  0  0  0  0  0  0  0  0  0
   28.9660   13.4660    9.2400 C   0  0  0  0  0  0  0  0  0  0  0  0
   28.9160    9.7080    7.7630 C   0  0  0  0  0  0  0  0  0  0  0  0
   27.6270    9.4460    7.6980 N   0  0  0  0  0  0  0  0  0  0  0  0
   24.7464    9.1845    8.6779 H   0  0  0  0  0  0  0  0  0  0  0  0
   23.8606    9.4192    7.1330 H   0  0  0  0  0  0  0  0  0  0  0  0
   25.4708    8.6230    7.1330 H   0  0  0  0  0  0  0  0  0  0  0  0
   25.2665   11.1489    6.4325 H   0  0  0  0  0  0  0  0  0  0  0  0
   25.1608   11.4186    8.2260 H   0  0  0  0  0  0  0  0  0  0  0  0
   27.7575   12.7679    7.4438 H   0  0  0  0  0  0  0  0  0  0  0  0
   32.2490   14.1119    8.5012 H   0  0  0  0  0  0  0  0  0  0  0  0
   31.6322   16.1752    9.7163 H   0  0  0  0  0  0  0  0  0  0  0  0
   27.2093   14.5432   11.3202 H   0  0  0  0  0  0  0  0  0  0  0  0
   24.0220   14.7353    9.4976 H   0  0  0  0  0  0  0  0  0  0  0  0
   21.9916   15.0289   10.9180 H   0  0  0  0  0  0  0  0  0  0  0  0
   22.0799   16.4781   12.9685 H   0  0  0  0  0  0  0  0  0  0  0  0
   27.2493   16.9883   12.7427 H   0  0  0  0  0  0  0  0  0  0  0  0
   26.8709   18.3498   11.7136 H   0  0  0  0  0  0  0  0  0  0  0  0
   27.5961   18.8487   14.3415 H   0  0  0  0  0  0  0  0  0  0  0  0
   25.2837   18.3829   16.2882 H   0  0  0  0  0  0  0  0  0  0  0  0
   26.6101   17.2280   15.9268 H   0  0  0  0  0  0  0  0  0  0  0  0
   27.0189   18.5538   18.0082 H   0  0  0  0  0  0  0  0  0  0  0  0
   28.2713   18.8304   16.7309 H   0  0  0  0  0  0  0  0  0  0  0  0
   26.7089   22.0972   15.8287 H   0  0  0  0  0  0  0  0  0  0  0  0
   28.1948   12.6887    9.1350 H   0  0  0  0  0  0  0  0  0  0  0  0
   29.7034    8.9519    7.8980 H   0  0  0  0  0  0  0  0  0  0  0  0
  1  2  1  0
  2  3  1  0
  3  4  2  0
  4  5  1  0
  5  6  1  0
  6  7  2  0
  6  8  2  0
  6  9  1  0
  9 10  2  0
 10 11  1  0
 11 12  2  0
 12 13  1  0
 13 14  1  0
 14 15  1  0
 15 16  2  0
 15 17  1  0
 17 18  2  0
 18 19  1  0
 19 20  2  0
 20 21  1  0
 21 22  2  0
 22 23  1  0
 23 24  1  0
 24 25  1  0
 25 26  1  0
 26 27  1  0
 27 28  1  0
 28 29  2  0
 28 30  1  0
 30 31  1  0
 31 32  2  0
 24 33  1  0
 33 34  2  0
 13 35  2  0
  5 36  1  0
 36 37  2  0
 37  3  1  0
 35  9  1  0
 22 17  1  0
 31 25  1  0
 33 21  1  0
  1 38  1  0
  1 39  1  0
  1 40  1  0
  2 41  1  0
  2 42  1  0
  4 43  1  0
 10 44  1  0
 11 45  1  0
 14 46  1  0
 18 47  1  0
 19 48  1  0
 20 49  1  0
 23 50  1  0
 23 51  1  0
 25 52  1  6
 26 53  1  0
 26 54  1  0
 27 55  1  0
 27 56  1  0
 30 57  1  0
 35 58  1  0
 36 59  1  0
M  END
>  <meeko>  (471) 
{"is_sidechain": [true], "free_energy": -12.41, "intermolecular_energy": 0.0, "internal_energy": -12.41, "cluster_size": 7, "cluster_id": 1, "rank_in_cluster": 1}

>  <_RMSD_MCS_to_ref>  (471) 
1.1316972504458354

$$$$
ligand
     RDKit          3D

 63 67  0  0  0  0  0  0  0  0999 V2000
   24.8710    9.6160    7.7820 C   0  0  0  0  0  0  0  0  0  0  0  0
   25.4240   10.9650    7.3490 C   0  0  0  0  0  0  0  0  0  0  0  0
   26.7030   11.2950    8.0330 C   0  0  0  0  0  0  0  0  0  0  0  0
   27.9770   11.3630    7.5050 C   0  0  0  0  0  0  0  0  0  0  0  0
   28.7670   11.6890    8.5720 N   0  0  0  0  0  0  0  0  0  0  0  0
   30.4080   12.0620    8.5150 S   0  0  0  0  0  6  0  0  0  0  0  0
   30.6630   12.8050    9.7370 O   0  0  0  0  0  0  0  0  0  0  0  0
   31.1030   10.8170    8.2460 O   0  0  0  0  0  0  0  0  0  0  0  0
   30.6280   13.1850    7.1370 C   0  0  0  0  0  0  0  0  0  0  0  0
   31.8790   13.1130    6.4920 C   0  0  0  0  0  0  0  0  0  0  0  0
   32.1590   13.9090    5.3880 C   0  0  0  0  0  0  0  0  0  0  0  0
   31.1920   14.7780    4.9040 C   0  0  0  0  0  0  0  0  0  0  0  0
   29.9330   14.8570    5.5190 C   0  0  0  0  0  0  0  0  0  0  0  0
   29.6170   14.0450    6.6370 C   0  0  0  0  0  0  0  0  0  0  0  0
   28.2190   14.1630    7.2480 C   0  0  1  0  0  0  0  0  0  0  0  0
   28.2230   14.7980    8.6610 C   0  0  0  0  0  0  0  0  0  0  0  0
   29.1760   14.6710    9.4240 O   0  0  0  0  0  0  0  0  0  0  0  0
   27.0490   15.4870    8.9250 N   0  0  0  0  0  0  0  0  0  0  0  0
   26.6640   16.1080   10.1270 C   0  0  0  0  0  0  0  0  0  0  0  0
   27.2560   17.3390   10.4280 C   0  0  0  0  0  0  0  0  0  0  0  0
   26.9200   18.0300   11.5980 C   0  0  0  0  0  0  0  0  0  0  0  0
   25.9700   17.5080   12.4860 C   0  0  0  0  0  0  0  0  0  0  0  0
   25.6010   18.2180   13.7780 C   0  0  1  0  0  0  0  0  0  0  0  0
   26.3120   17.5490   14.9600 C   0  0  0  0  0  0  0  0  0  0  0  0
   25.8860   18.2110   16.2600 C   0  0  0  0  0  0  0  0  0  0  0  0
   26.1640   19.6930   16.2300 C   0  0  0  0  0  0  0  0  0  0  0  0
   26.3630   20.3450   17.2510 O   0  0  0  0  0  0  0  0  0  0  0  0
   26.1270   20.2960   14.9990 N   0  0  0  0  0  0  0  0  0  0  0  0
   25.8850   19.7200   13.7720 C   0  0  0  0  0  0  0  0  0  0  0  0
   25.8590   20.4250   12.7660 O   0  0  0  0  0  0  0  0  0  0  0  0
   25.3840   16.2720   12.1810 C   0  0  0  0  0  0  0  0  0  0  0  0
   25.7280   15.5800   11.0140 C   0  0  0  0  0  0  0  0  0  0  0  0
   27.2690   14.8800    6.4280 O   0  0  0  0  0  0  0  0  0  0  0  0
   27.8100   16.0990    5.9230 C   0  0  0  0  0  0  0  0  0  0  0  0
   28.8980   15.7750    4.9160 C   0  0  0  0  0  0  0  0  0  0  0  0
   27.9790   11.8670    9.6640 C   0  0  0  0  0  0  0  0  0  0  0  0
   26.7170   11.6140    9.3750 N   0  0  0  0  0  0  0  0  0  0  0  0
   24.8497    9.5640    8.8806 H   0  0  0  0  0  0  0  0  0  0  0  0
   23.8507    9.4948    7.3893 H   0  0  0  0  0  0  0  0  0  0  0  0
   25.5127    8.8135    7.3893 H   0  0  0  0  0  0  0  0  0  0  0  0
   25.5984   10.9441    6.2631 H   0  0  0  0  0  0  0  0  0  0  0  0
   24.6872   11.7348    7.6220 H   0  0  0  0  0  0  0  0  0  0  0  0
   28.2860   11.1935    6.4630 H   0  0  0  0  0  0  0  0  0  0  0  0
   32.6439   12.4174    6.8675 H   0  0  0  0  0  0  0  0  0  0  0  0
   33.1431   13.8503    4.9000 H   0  0  0  0  0  0  0  0  0  0  0  0
   31.4138   15.4100    4.0314 H   0  0  0  0  0  0  0  0  0  0  0  0
   27.8917   13.1151    7.3169 H   0  0  0  0  0  0  0  0  0  0  0  0
   26.3775   15.5520    8.1467 H   0  0  0  0  0  0  0  0  0  0  0  0
   27.9951   17.7696    9.7364 H   0  0  0  0  0  0  0  0  0  0  0  0
   27.4059   18.9910   11.8223 H   0  0  0  0  0  0  0  0  0  0  0  0
   24.5100   18.1214   13.8796 H   0  0  0  0  0  0  0  0  0  0  0  0
   26.0460   16.4820   14.9895 H   0  0  0  0  0  0  0  0  0  0  0  0
   27.3998   17.6571   14.8373 H   0  0  0  0  0  0  0  0  0  0  0  0
   24.8080   18.0504   16.4087 H   0  0  0  0  0  0  0  0  0  0  0  0
   26.4604   17.7640   17.0848 H   0  0  0  0  0  0  0  0  0  0  0  0
   26.3030   21.3108   14.9912 H   0  0  0  0  0  0  0  0  0  0  0  0
   24.6427   15.8393   12.8689 H   0  0  0  0  0  0  0  0  0  0  0  0
   25.2554   14.6111   10.7952 H   0  0  0  0  0  0  0  0  0  0  0  0
   27.0151   16.6807    5.4333 H   0  0  0  0  0  0  0  0  0  0  0  0
   28.2316   16.6899    6.7495 H   0  0  0  0  0  0  0  0  0  0  0  0
   28.4454   15.2831    4.0424 H   0  0  0  0  0  0  0  0  0  0  0  0
   29.3905   16.7119    4.6167 H   0  0  0  0  0  0  0  0  0  0  0  0
   28.3433   12.1794   10.6538 H   0  0  0  0  0  0  0  0  0  0  0  0
  1  2  1  0
  2  3  1  0
  3  4  2  0
  4  5  1  0
  5  6  1  0
  6  7  2  0
  6  8  2  0
  6  9  1  0
  9 10  2  0
 10 11  1  0
 11 12  2  0
 12 13  1  0
 13 14  2  0
 14 15  1  0
 15 16  1  0
 16 17  2  0
 16 18  1  0
 18 19  1  0
 19 20  2  0
 20 21  1  0
 21 22  2  0
 22 23  1  0
 23 24  1  0
 24 25  1  0
 25 26  1  0
 26 27  2  0
 26 28  1  0
 28 29  1  0
 29 30  2  0
 22 31  1  0
 31 32  2  0
 15 33  1  0
 33 34  1  0
 34 35  1  0
  5 36  1  0
 36 37  2  0
 37  3  1  0
 14  9  1  0
 32 19  1  0
 35 13  1  0
 29 23  1  0
  1 38  1  0
  1 39  1  0
  1 40  1  0
  2 41  1  0
  2 42  1  0
  4 43  1  0
 10 44  1  0
 11 45  1  0
 12 46  1  0
 15 47  1  1
 18 48  1  0
 20 49  1  0
 21 50  1  0
 23 51  1  1
 24 52  1  0
 24 53  1  0
 25 54  1  0
 25 55  1  0
 28 56  1  0
 31 57  1  0
 32 58  1  0
 34 59  1  0
 34 60  1  0
 35 61  1  0
 35 62  1  0
 36 63  1  0
M  END
>  <meeko>  (472) 
{"is_sidechain": [true], "free_energy": -12.41, "intermolecular_energy": 0.0, "internal_energy": -12.41, "cluster_size": 19, "cluster_id": 1, "rank_in_cluster": 1}

>  <_RMSD_MCS_to_ref>  (472) 
0.9307474147157221

$$$$
ligand
     RDKit          3D

 60 65  0  0  0  0  0  0  0  0999 V2000
   24.8710    9.6160    7.7820 C   0  0  0  0  0  0  0  0  0  0  0  0
   25.4240   10.9650    7.3490 C   0  0  0  0  0  0  0  0  0  0  0  0
   26.8240   11.1680    7.8080 C   0  0  0  0  0  0  0  0  0  0  0  0
   27.3110   12.0760    8.7280 C   0  0  0  0  0  0  0  0  0  0  0  0
   28.6570   11.8390    8.7530 N   0  0  0  0  0  0  0  0  0  0  0  0
   29.8180   12.8230    9.4830 S   0  0  0  0  0  6  0  0  0  0  0  0
   29.4370   12.8760   10.8830 O   0  0  0  0  0  0  0  0  0  0  0  0
   31.0870   12.2470    9.0780 O   0  0  0  0  0  0  0  0  0  0  0  0
   29.7130   14.3250    8.8370 O   0  0  0  0  0  0  0  0  0  0  0  0
   29.1640   14.4870    7.5870 C   0  0  0  0  0  0  0  0  0  0  0  0
   29.9010   14.0980    6.4620 C   0  0  0  0  0  0  0  0  0  0  0  0
   29.3230   14.2940    5.2280 C   0  0  0  0  0  0  0  0  0  0  0  0
   28.0660   14.8320    5.0960 C   0  0  0  0  0  0  0  0  0  0  0  0
   27.3080   15.1940    6.1890 C   0  0  0  0  0  0  0  0  0  0  0  0
   27.8490   15.0140    7.4770 C   0  0  0  0  0  0  0  0  0  0  0  0
   27.0490   15.3780    8.6610 C   0  0  0  0  0  0  0  0  0  0  0  0
   25.8760   14.6490    8.9880 C   0  0  0  0  0  0  0  0  0  0  0  0
   25.0950   14.9760   10.0990 C   0  0  0  0  0  0  0  0  0  0  0  0
   25.5100   16.0390   10.8740 C   0  0  0  0  0  0  0  0  0  0  0  0
   26.6600   16.7710   10.5910 C   0  0  0  0  0  0  0  0  0  0  0  0
   27.4380   16.4510    9.4900 C   0  0  0  0  0  0  0  0  0  0  0  0
   26.8510   17.8450   11.6110 C   0  0  0  0  0  0  0  0  0  0  0  0
   25.6870   17.6700   12.4720 N   0  0  0  0  0  0  0  0  0  0  0  0
   25.5100   18.3460   13.7550 C   0  0  1  0  0  0  0  0  0  0  0  0
   26.3200   17.6500   14.8510 C   0  0  0  0  0  0  0  0  0  0  0  0
   26.0160   18.2850   16.1980 C   0  0  0  0  0  0  0  0  0  0  0  0
   26.2810   19.7700   16.1730 C   0  0  0  0  0  0  0  0  0  0  0  0
   26.6830   20.3840   17.1550 O   0  0  0  0  0  0  0  0  0  0  0  0
   26.0190   20.4190   14.9930 N   0  0  0  0  0  0  0  0  0  0  0  0
   25.8430   19.8470   13.7540 C   0  0  0  0  0  0  0  0  0  0  0  0
   25.9300   20.5380   12.7410 O   0  0  0  0  0  0  0  0  0  0  0  0
   24.9070   16.5890   12.0930 C   0  0  0  0  0  0  0  0  0  0  0  0
   23.9330   16.1360   12.6600 O   0  0  0  0  0  0  0  0  0  0  0  0
   27.6840   14.9410    3.7950 O   0  0  0  0  0  0  0  0  0  0  0  0
   28.8430   14.4050    3.1220 C   0  0  0  0  0  0  0  0  0  0  0  0
   29.8910   13.9990    4.0290 O   0  0  0  0  0  0  0  0  0  0  0  0
   28.9520   10.8570    7.8640 C   0  0  0  0  0  0  0  0  0  0  0  0
   27.8550   10.4190    7.2790 N   0  0  0  0  0  0  0  0  0  0  0  0
   24.8497    9.5640    8.8806 H   0  0  0  0  0  0  0  0  0  0  0  0
   23.8507    9.4948    7.3893 H   0  0  0  0  0  0  0  0  0  0  0  0
   25.5127    8.8135    7.3893 H   0  0  0  0  0  0  0  0  0  0  0  0
   25.3986   11.0230    6.2508 H   0  0  0  0  0  0  0  0  0  0  0  0
   24.8008   11.7489    7.8040 H   0  0  0  0  0  0  0  0  0  0  0  0
   26.7450   12.8198    9.3080 H   0  0  0  0  0  0  0  0  0  0  0  0
   30.9023   13.6533    6.5602 H   0  0  0  0  0  0  0  0  0  0  0  0
   26.3003   15.6152    6.0579 H   0  0  0  0  0  0  0  0  0  0  0  0
   25.5742   13.8050    8.3503 H   0  0  0  0  0  0  0  0  0  0  0  0
   24.1856   14.4086   10.3460 H   0  0  0  0  0  0  0  0  0  0  0  0
   28.3479   17.0267    9.2651 H   0  0  0  0  0  0  0  0  0  0  0  0
   27.7861   17.6995   12.1717 H   0  0  0  0  0  0  0  0  0  0  0  0
   26.9298   18.8532   11.1781 H   0  0  0  0  0  0  0  0  0  0  0  0
   24.4312   18.2729   13.9573 H   0  0  0  0  0  0  0  0  0  0  0  0
   26.0524   16.5835   14.8814 H   0  0  0  0  0  0  0  0  0  0  0  0
   27.3929   17.7569   14.6330 H   0  0  0  0  0  0  0  0  0  0  0  0
   24.9579   18.1134   16.4450 H   0  0  0  0  0  0  0  0  0  0  0  0
   26.6700   17.8270   16.9547 H   0  0  0  0  0  0  0  0  0  0  0  0
   25.9462   21.4454   15.0396 H   0  0  0  0  0  0  0  0  0  0  0  0
   28.5316   13.5295    2.5334 H   0  0  0  0  0  0  0  0  0  0  0  0
   29.2518   15.2054    2.4878 H   0  0  0  0  0  0  0  0  0  0  0  0
   29.9648   10.4794    7.6601 H   0  0  0  0  0  0  0  0  0  0  0  0
  1  2  1  0
  2  3  1  0
  3  4  2  0
  4  5  1  0
  5  6  1  0
  6  7  2  0
  6  8  2  0
  6  9  1  0
  9 10  1  0
 10 11  2  0
 11 12  1  0
 12 13  2  0
 13 14  1  0
 14 15  2  0
 15 16  1  0
 16 17  2  0
 17 18  1  0
 18 19  2  0
 19 20  1  0
 20 21  2  0
 20 22  1  0
 22 23  1  0
 23 24  1  0
 24 25  1  0
 25 26  1  0
 26 27  1  0
 27 28  2  0
 27 29  1  0
 29 30  1  0
 30 31  2  0
 23 32  1  0
 32 33  2  0
 13 34  1  0
 34 35  1  0
 35 36  1  0
  5 37  1  0
 37 38  2  0
 38  3  1  0
 15 10  1  0
 21 16  1  0
 30 24  1  0
 36 12  1  0
 32 19  1  0
  1 39  1  0
  1 40  1  0
  1 41  1  0
  2 42  1  0
  2 43  1  0
  4 44  1  0
 11 45  1  0
 14 46  1  0
 17 47  1  0
 18 48  1  0
 21 49  1  0
 22 50  1  0
 22 51  1  0
 24 52  1  1
 25 53  1  0
 25 54  1  0
 26 55  1  0
 26 56  1  0
 29 57  1  0
 35 58  1  0
 35 59  1  0
 37 60  1  0
M  END
>  <meeko>  (473) 
{"is_sidechain": [true], "free_energy": -12.41, "intermolecular_energy": 0.0, "internal_energy": -12.41, "cluster_size": 12, "cluster_id": 1, "rank_in_cluster": 1}

>  <_RMSD_MCS_to_ref>  (473) 
1.4209617388085773

$$$$
ligand
     RDKit          3D

 55 59  0  0  0  0  0  0  0  0999 V2000
   24.8710    9.6160    7.7820 C   0  0  0  0  0  0  0  0  0  0  0  0
   25.4240   10.9650    7.3490 C   0  0  0  0  0  0  0  0  0  0  0  0
   26.7020   11.2950    8.0380 C   0  0  0  0  0  0  0  0  0  0  0  0
   26.9170   12.1260    9.1190 C   0  0  0  0  0  0  0  0  0  0  0  0
   28.2620   12.0420    9.3490 N   0  0  0  0  0  0  0  0  0  0  0  0
   29.1560   13.0830   10.3300 S   0  0  0  0  0  6  0  0  0  0  0  0
   29.2550   12.4040   11.6120 O   0  0  0  0  0  0  0  0  0  0  0  0
   30.3390   13.3970    9.5530 O   0  0  0  0  0  0  0  0  0  0  0  0
   28.2500   14.4370   10.4850 O   0  0  0  0  0  0  0  0  0  0  0  0
   27.6780   15.0670    9.4540 C   0  0  0  0  0  0  0  0  0  0  0  0
   28.1810   15.0110    8.1750 N   0  0  0  0  0  0  0  0  0  0  0  0
   27.3910   15.7260    7.3070 C   0  0  0  0  0  0  0  0  0  0  0  0
   27.5330   15.9500    5.9330 C   0  0  0  0  0  0  0  0  0  0  0  0
   26.5610   16.7300    5.3010 C   0  0  0  0  0  0  0  0  0  0  0  0
   25.4910   17.2630    6.0150 C   0  0  0  0  0  0  0  0  0  0  0  0
   25.3630   17.0280    7.3890 C   0  0  0  0  0  0  0  0  0  0  0  0
   26.3290   16.2420    8.0510 C   0  0  0  0  0  0  0  0  0  0  0  0
   26.5150   15.8150    9.4020 C   0  0  0  0  0  0  0  0  0  0  0  0
   25.6960   16.1010   10.5660 C   0  0  0  0  0  0  0  0  0  0  0  0
   24.3900   15.6160   10.6330 C   0  0  0  0  0  0  0  0  0  0  0  0
   23.5990   15.9200   11.7370 C   0  0  0  0  0  0  0  0  0  0  0  0
   24.1080   16.7150   12.7710 C   0  0  0  0  0  0  0  0  0  0  0  0
   25.4140   17.2220   12.7280 C   0  0  0  0  0  0  0  0  0  0  0  0
   25.9380   18.0330   13.7950 N   0  0  0  0  0  0  0  0  0  0  0  0
   26.2700   17.4070   15.0710 C   0  0  0  0  0  0  0  0  0  0  0  0
   25.9840   18.3340   16.2330 C   0  0  0  0  0  0  0  0  0  0  0  0
   26.6750   19.6410   16.0020 C   0  0  0  0  0  0  0  0  0  0  0  0
   26.9710   20.4040   16.9170 O   0  0  0  0  0  0  0  0  0  0  0  0
   26.8770   19.9820   14.6940 N   0  0  0  0  0  0  0  0  0  0  0  0
   26.3540   19.3530   13.5890 C   0  0  0  0  0  0  0  0  0  0  0  0
   26.3080   19.9830   12.5360 O   0  0  0  0  0  0  0  0  0  0  0  0
   26.2010   16.8970   11.6090 C   0  0  0  0  0  0  0  0  0  0  0  0
   28.8220   11.2490    8.3990 C   0  0  0  0  0  0  0  0  0  0  0  0
   27.8990   10.7700    7.5910 N   0  0  0  0  0  0  0  0  0  0  0  0
   24.8497    9.5640    8.8806 H   0  0  0  0  0  0  0  0  0  0  0  0
   23.8507    9.4948    7.3893 H   0  0  0  0  0  0  0  0  0  0  0  0
   25.5127    8.8135    7.3893 H   0  0  0  0  0  0  0  0  0  0  0  0
   25.6017   10.9434    6.2637 H   0  0  0  0  0  0  0  0  0  0  0  0
   24.6861   11.7352    7.6180 H   0  0  0  0  0  0  0  0  0  0  0  0
   26.1743   12.7211    9.6705 H   0  0  0  0  0  0  0  0  0  0  0  0
   29.0345   14.5019    7.9043 H   0  0  0  0  0  0  0  0  0  0  0  0
   28.3789   15.5275    5.3710 H   0  0  0  0  0  0  0  0  0  0  0  0
   26.6425   16.9262    4.2217 H   0  0  0  0  0  0  0  0  0  0  0  0
   24.7392   17.8745    5.4945 H   0  0  0  0  0  0  0  0  0  0  0  0
   24.5161   17.4528    7.9478 H   0  0  0  0  0  0  0  0  0  0  0  0
   23.9875   14.9967    9.8179 H   0  0  0  0  0  0  0  0  0  0  0  0
   22.5706   15.5344   11.7974 H   0  0  0  0  0  0  0  0  0  0  0  0
   23.4691   16.9467   13.6359 H   0  0  0  0  0  0  0  0  0  0  0  0
   25.6705   16.4921   15.1873 H   0  0  0  0  0  0  0  0  0  0  0  0
   27.3448   17.1727   15.0720 H   0  0  0  0  0  0  0  0  0  0  0  0
   24.8996   18.5003   16.3126 H   0  0  0  0  0  0  0  0  0  0  0  0
   26.3519   17.8815   17.1657 H   0  0  0  0  0  0  0  0  0  0  0  0
   27.4844   20.7950   14.5177 H   0  0  0  0  0  0  0  0  0  0  0  0
   27.2329   17.2733   11.5484 H   0  0  0  0  0  0  0  0  0  0  0  0
   29.8980   11.0363    8.3160 H   0  0  0  0  0  0  0  0  0  0  0  0
  1  2  1  0
  2  3  1  0
  3  4  2  0
  4  5  1  0
  5  6  1  0
  6  7  2  0
  6  8  2  0
  6  9  1  0
  9 10  1  0
 10 11  1  0
 11 12  1  0
 12 13  2  0
 13 14  1  0
 14 15  2  0
 15 16  1  0
 16 17  2  0
 17 18  1  0
 18 19  1  0
 19 20  2  0
 20 21  1  0
 21 22  2  0
 22 23  1  0
 23 24  1  0
 24 25  1  0
 25 26  1  0
 26 27  1  0
 27 28  2  0
 27 29  1  0
 29 30  1  0
 30 31  2  0
 23 32  2  0
  5 33  1  0
 33 34  2  0
 34  3  1  0
 18 10  2  0
 32 19  1  0
 17 12  1  0
 30 24  1  0
  1 35  1  0
  1 36  1  0
  1 37  1  0
  2 38  1  0
  2 39  1  0
  4 40  1  0
 11 41  1  0
 13 42  1  0
 14 43  1  0
 15 44  1  0
 16 45  1  0
 20 46  1  0
 21 47  1  0
 22 48  1  0
 25 49  1  0
 25 50  1  0
 26 51  1  0
 26 52  1  0
 29 53  1  0
 32 54  1  0
 33 55  1  0
M  END
>  <meeko>  (474) 
{"is_sidechain": [true], "free_energy": -12.41, "intermolecular_energy": 0.0, "internal_energy": -12.41, "cluster_size": 15, "cluster_id": 1, "rank_in_cluster": 1}

>  <_RMSD_MCS_to_ref>  (474) 
1.1883965562891872

$$$$
ligand
     RDKit          3D

 59 62  0  0  0  0  0  0  0  0999 V2000
   24.8540    9.4020    7.6050 C   0  0  0  0  0  0  0  0  0  0  0  0
   25.5230   10.7550    7.4270 C   0  0  0  0  0  0  0  0  0  0  0  0
   26.9280   10.6290    6.9540 C   0  0  0  0  0  0  0  0  0  0  0  0
   27.5870   11.3570    5.9820 C   0  0  0  0  0  0  0  0  0  0  0  0
   28.8490   10.8350    5.9710 N   0  0  0  0  0  0  0  0  0  0  0  0
   30.0420   11.1720    4.8370 S   0  0  0  0  0  6  0  0  0  0  0  0
   29.5780   10.5930    3.5900 O   0  0  0  0  0  0  0  0  0  0  0  0
   31.2970   10.7850    5.4530 O   0  0  0  0  0  0  0  0  0  0  0  0
   29.9980   12.9360    4.7000 C   0  0  0  0  0  0  0  0  0  0  0  0
   30.6810   13.5690    3.6560 C   0  0  0  0  0  0  0  0  0  0  0  0
   30.6430   14.9580    3.5560 C   0  0  0  0  0  0  0  0  0  0  0  0
   29.9360   15.7090    4.4990 C   0  0  0  0  0  0  0  0  0  0  0  0
   29.2690   15.0730    5.5510 C   0  0  0  0  0  0  0  0  0  0  0  0
   28.5570   15.8470    6.5180 C   0  0  0  0  0  0  0  0  0  0  0  0
   27.9550   16.4970    7.3300 C   0  0  0  0  0  0  0  0  0  0  0  0
   27.2280   17.2800    8.3070 C   0  0  0  0  0  0  0  0  0  0  0  0
   26.7990   18.3700    7.9640 O   0  0  0  0  0  0  0  0  0  0  0  0
   27.1170   16.6680    9.5350 N   0  0  0  0  0  0  0  0  0  0  0  0
   26.4740   17.1620   10.6860 C   0  0  0  0  0  0  0  0  0  0  0  0
   26.9160   18.2620   11.4150 C   0  0  0  0  0  0  0  0  0  0  0  0
   26.2170   18.6920   12.5550 C   0  0  0  0  0  0  0  0  0  0  0  0
   25.0810   18.0190   13.0110 C   0  0  0  0  0  0  0  0  0  0  0  0
   24.3030   18.4380   14.0920 N   0  0  0  0  0  0  0  0  0  0  0  0
   24.9160   19.0780   15.2660 C   0  0  1  0  0  0  0  0  0  0  0  0
   26.0140   18.1800   15.8300 C   0  0  0  0  0  0  0  0  0  0  0  0
   26.6860   18.8700   17.0050 C   0  0  0  0  0  0  0  0  0  0  0  0
   27.2470   20.2130   16.6020 C   0  0  0  0  0  0  0  0  0  0  0  0
   28.2430   20.6950   17.1320 O   0  0  0  0  0  0  0  0  0  0  0  0
   26.5590   20.8980   15.6350 N   0  0  0  0  0  0  0  0  0  0  0  0
   25.5520   20.4150   14.8360 C   0  0  0  0  0  0  0  0  0  0  0  0
   25.1790   21.0410   13.8420 O   0  0  0  0  0  0  0  0  0  0  0  0
   24.6260   16.9390   12.2450 C   0  0  0  0  0  0  0  0  0  0  0  0
   25.3170   16.5050   11.1070 C   0  0  0  0  0  0  0  0  0  0  0  0
   29.3010   13.6810    5.6560 C   0  0  0  0  0  0  0  0  0  0  0  0
   28.9170    9.8130    6.8620 C   0  0  0  0  0  0  0  0  0  0  0  0
   27.7670    9.6690    7.4870 N   0  0  0  0  0  0  0  0  0  0  0  0
   24.7464    9.1845    8.6779 H   0  0  0  0  0  0  0  0  0  0  0  0
   23.8606    9.4192    7.1330 H   0  0  0  0  0  0  0  0  0  0  0  0
   25.4708    8.6230    7.1330 H   0  0  0  0  0  0  0  0  0  0  0  0
   24.9519   11.3384    6.6897 H   0  0  0  0  0  0  0  0  0  0  0  0
   25.5399   11.2550    8.4066 H   0  0  0  0  0  0  0  0  0  0  0  0
   27.1868   12.1708    5.3595 H   0  0  0  0  0  0  0  0  0  0  0  0
   31.2432   12.9751    2.9204 H   0  0  0  0  0  0  0  0  0  0  0  0
   31.1701   15.4642    2.7339 H   0  0  0  0  0  0  0  0  0  0  0  0
   29.9040   16.8052    4.4135 H   0  0  0  0  0  0  0  0  0  0  0  0
   27.5556   15.7401    9.6220 H   0  0  0  0  0  0  0  0  0  0  0  0
   27.8210   18.7996   11.0956 H   0  0  0  0  0  0  0  0  0  0  0  0
   26.5721   19.5785   13.1009 H   0  0  0  0  0  0  0  0  0  0  0  0
   23.2831   18.2966   14.0670 H   0  0  0  0  0  0  0  0  0  0  0  0
   24.1433   19.2468   16.0305 H   0  0  0  0  0  0  0  0  0  0  0  0
   25.5727   17.2305   16.1671 H   0  0  0  0  0  0  0  0  0  0  0  0
   26.7613   17.9825   15.0473 H   0  0  0  0  0  0  0  0  0  0  0  0
   25.9465   19.0159   17.8061 H   0  0  0  0  0  0  0  0  0  0  0  0
   27.5152   18.2365   17.3530 H   0  0  0  0  0  0  0  0  0  0  0  0
   26.8263   21.8824   15.4918 H   0  0  0  0  0  0  0  0  0  0  0  0
   23.7039   16.4191   12.5442 H   0  0  0  0  0  0  0  0  0  0  0  0
   24.9447   15.6389   10.5401 H   0  0  0  0  0  0  0  0  0  0  0  0
   28.7824   13.1750    6.4836 H   0  0  0  0  0  0  0  0  0  0  0  0
   29.8080    9.1922    7.0373 H   0  0  0  0  0  0  0  0  0  0  0  0
  1  2  1  0
  2  3  1  0
  3  4  2  0
  4  5  1  0
  5  6  1  0
  6  7  2  0
  6  8  2  0
  6  9  1  0
  9 10  2  0
 10 11  1  0
 11 12  2  0
 12 13  1  0
 13 14  1  0
 14 15  3  0
 15 16  1  0
 16 17  2  0
 16 18  1  0
 18 19  1  0
 19 20  2  0
 20 21  1  0
 21 22  2  0
 22 23  1  0
 23 24  1  0
 24 25  1  0
 25 26  1  0
 26 27  1  0
 27 28  2  0
 27 29  1  0
 29 30  1  0
 30 31  2  0
 22 32  1  0
 32 33  2  0
 13 34  2  0
  5 35  1  0
 35 36  2  0
 36  3  1  0
 34  9  1  0
 33 19  1  0
 30 24  1  0
  1 37  1  0
  1 38  1  0
  1 39  1  0
  2 40  1  0
  2 41  1  0
  4 42  1  0
 10 43  1  0
 11 44  1  0
 12 45  1  0
 18 46  1  0
 20 47  1  0
 21 48  1  0
 23 49  1  0
 24 50  1  1
 25 51  1  0
 25 52  1  0
 26 53  1  0
 26 54  1  0
 29 55  1  0
 32 56  1  0
 33 57  1  0
 34 58  1  0
 35 59  1  0
M  END
>  <meeko>  (475) 
{"is_sidechain": [true], "free_energy": -12.4, "intermolecular_energy": 0.0, "internal_energy": -12.4, "cluster_size": 20, "cluster_id": 1, "rank_in_cluster": 1}

>  <_RMSD_MCS_to_ref>  (475) 
0.6936699503366133

$$$$
ligand
     RDKit          3D

 57 61  0  0  0  0  0  0  0  0999 V2000
   24.8540    9.4020    7.6050 C   0  0  0  0  0  0  0  0  0  0  0  0
   25.5230   10.7550    7.4270 C   0  0  0  0  0  0  0  0  0  0  0  0
   27.0050   10.6690    7.5390 C   0  0  0  0  0  0  0  0  0  0  0  0
   27.8990   11.6170    7.9940 C   0  0  0  0  0  0  0  0  0  0  0  0
   29.1150   11.0050    7.8980 N   0  0  0  0  0  0  0  0  0  0  0  0
   30.6050   11.7510    8.0750 S   0  0  0  0  0  6  0  0  0  0  0  0
   31.1140   11.9810    6.7390 O   0  0  0  0  0  0  0  0  0  0  0  0
   31.3250   11.0070    9.0890 O   0  0  0  0  0  0  0  0  0  0  0  0
   30.3580   13.3230    8.7580 C   0  0  0  0  0  0  0  0  0  0  0  0
   31.3640   14.2380    8.9790 C   0  0  0  0  0  0  0  0  0  0  0  0
   30.7630   15.6930    9.6430 S   0  0  0  0  0  0  0  0  0  0  0  0
   29.1470   15.1150    9.6500 C   0  0  0  0  0  0  0  0  0  0  0  0
   28.0190   15.9170   10.1320 C   0  0  0  0  0  0  0  0  0  0  0  0
   28.1610   17.1120   10.3610 O   0  0  0  0  0  0  0  0  0  0  0  0
   26.8400   15.2160   10.2920 N   0  0  0  0  0  0  0  0  0  0  0  0
   25.5700   15.6320   10.7460 C   0  0  0  0  0  0  0  0  0  0  0  0
   24.4780   15.1220   10.0060 C   0  0  0  0  0  0  0  0  0  0  0  0
   23.1420   15.4210   10.3290 C   0  0  0  0  0  0  0  0  0  0  0  0
   22.8570   16.2450   11.4070 C   0  0  0  0  0  0  0  0  0  0  0  0
   23.9320   16.7450   12.1190 C   0  0  0  0  0  0  0  0  0  0  0  0
   25.2750   16.4640   11.8170 C   0  0  0  0  0  0  0  0  0  0  0  0
   26.1300   17.1710   12.8200 C   0  0  0  0  0  0  0  0  0  0  0  0
   25.1760   17.9200   13.6280 N   0  0  0  0  0  0  0  0  0  0  0  0
   25.5860   18.5800   14.8620 C   0  0  1  0  0  0  0  0  0  0  0  0
   26.6920   17.8410   15.6120 C   0  0  0  0  0  0  0  0  0  0  0  0
   26.9970   18.5730   16.9090 C   0  0  0  0  0  0  0  0  0  0  0  0
   27.3770   20.0120   16.6490 C   0  0  0  0  0  0  0  0  0  0  0  0
   28.0590   20.6610   17.4380 O   0  0  0  0  0  0  0  0  0  0  0  0
   26.8560   20.5940   15.5210 N   0  0  0  0  0  0  0  0  0  0  0  0
   25.9920   20.0390   14.6030 C   0  0  0  0  0  0  0  0  0  0  0  0
   25.5220   20.7320   13.7010 O   0  0  0  0  0  0  0  0  0  0  0  0
   23.8730   17.6220   13.2930 C   0  0  0  0  0  0  0  0  0  0  0  0
   22.8480   17.9760   13.8410 O   0  0  0  0  0  0  0  0  0  0  0  0
   29.0810   13.8250    9.1480 C   0  0  0  0  0  0  0  0  0  0  0  0
   28.9510    9.7720    7.3540 C   0  0  0  0  0  0  0  0  0  0  0  0
   27.6750    9.5290    7.1390 N   0  0  0  0  0  0  0  0  0  0  0  0
   24.7464    9.1845    8.6779 H   0  0  0  0  0  0  0  0  0  0  0  0
   23.8606    9.4192    7.1330 H   0  0  0  0  0  0  0  0  0  0  0  0
   25.4708    8.6230    7.1330 H   0  0  0  0  0  0  0  0  0  0  0  0
   25.2652   11.1496    6.4331 H   0  0  0  0  0  0  0  0  0  0  0  0
   25.1619   11.4180    8.2271 H   0  0  0  0  0  0  0  0  0  0  0  0
   27.6811   12.6339    8.3523 H   0  0  0  0  0  0  0  0  0  0  0  0
   32.4252   14.0541    8.7552 H   0  0  0  0  0  0  0  0  0  0  0  0
   26.8972   14.2198   10.0365 H   0  0  0  0  0  0  0  0  0  0  0  0
   24.6810   14.4671    9.1458 H   0  0  0  0  0  0  0  0  0  0  0  0
   22.3233   15.0010    9.7263 H   0  0  0  0  0  0  0  0  0  0  0  0
   21.8211   16.4903   11.6839 H   0  0  0  0  0  0  0  0  0  0  0  0
   26.6855   16.4503   13.4381 H   0  0  0  0  0  0  0  0  0  0  0  0
   26.8879   17.8162   12.3517 H   0  0  0  0  0  0  0  0  0  0  0  0
   24.7020   18.5637   15.5164 H   0  0  0  0  0  0  0  0  0  0  0  0
   26.3614   16.8164   15.8376 H   0  0  0  0  0  0  0  0  0  0  0  0
   27.5977   17.8037   14.9888 H   0  0  0  0  0  0  0  0  0  0  0  0
   26.1055   18.5482   17.5530 H   0  0  0  0  0  0  0  0  0  0  0  0
   27.8447   18.0726   17.3999 H   0  0  0  0  0  0  0  0  0  0  0  0
   27.1466   21.5651   15.3383 H   0  0  0  0  0  0  0  0  0  0  0  0
   28.1466   13.2512    9.0600 H   0  0  0  0  0  0  0  0  0  0  0  0
   29.7695    9.0738    7.1249 H   0  0  0  0  0  0  0  0  0  0  0  0
  1  2  1  0
  2  3  1  0
  3  4  2  0
  4  5  1  0
  5  6  1  0
  6  7  2  0
  6  8  2  0
  6  9  1  0
  9 10  2  0
 10 11  1  0
 11 12  1  0
 12 13  1  0
 13 14  2  0
 13 15  1  0
 15 16  1  0
 16 17  2  0
 17 18  1  0
 18 19  2  0
 19 20  1  0
 20 21  2  0
 21 22  1  0
 22 23  1  0
 23 24  1  0
 24 25  1  0
 25 26  1  0
 26 27  1  0
 27 28  2  0
 27 29  1  0
 29 30  1  0
 30 31  2  0
 23 32  1  0
 32 33  2  0
 12 34  2  0
  5 35  1  0
 35 36  2  0
 36  3  1  0
 34  9  1  0
 21 16  1  0
 30 24  1  0
 32 20  1  0
  1 37  1  0
  1 38  1  0
  1 39  1  0
  2 40  1  0
  2 41  1  0
  4 42  1  0
 10 43  1  0
 15 44  1  0
 17 45  1  0
 18 46  1  0
 19 47  1  0
 22 48  1  0
 22 49  1  0
 24 50  1  1
 25 51  1  0
 25 52  1  0
 26 53  1  0
 26 54  1  0
 29 55  1  0
 34 56  1  0
 35 57  1  0
M  END
>  <meeko>  (476) 
{"is_sidechain": [true], "free_energy": -12.4, "intermolecular_energy": 0.0, "internal_energy": -12.4, "cluster_size": 16, "cluster_id": 1, "rank_in_cluster": 1}

>  <_RMSD_MCS_to_ref>  (476) 
0.7709281743457032

$$$$
ligand
     RDKit          3D

 57 61  0  0  0  0  0  0  0  0999 V2000
   24.8540    9.4020    7.6050 C   0  0  0  0  0  0  0  0  0  0  0  0
   25.5230   10.7550    7.4270 C   0  0  0  0  0  0  0  0  0  0  0  0
   25.4750   11.2260    6.0160 C   0  0  0  0  0  0  0  0  0  0  0  0
   26.4260   11.9230    5.2990 C   0  0  0  0  0  0  0  0  0  0  0  0
   25.8780   12.0560    4.0550 N   0  0  0  0  0  0  0  0  0  0  0  0
   26.4770   13.0270    2.8140 S   0  0  0  0  0  6  0  0  0  0  0  0
   27.7060   12.3760    2.4010 O   0  0  0  0  0  0  0  0  0  0  0  0
   25.3570   13.1870    1.9020 O   0  0  0  0  0  0  0  0  0  0  0  0
   26.8250   14.4620    3.5010 O   0  0  0  0  0  0  0  0  0  0  0  0
   26.4890   14.7640    4.7950 C   0  0  0  0  0  0  0  0  0  0  0  0
   27.3850   14.9290    5.8490 C   0  0  0  0  0  0  0  0  0  0  0  0
   26.9100   15.2380    7.1300 C   0  0  0  0  0  0  0  0  0  0  0  0
   25.5370   15.3850    7.3860 C   0  0  0  0  0  0  0  0  0  0  0  0
   25.0440   15.7100    8.7360 C   0  0  0  0  0  0  0  0  0  0  0  0
   23.8980   15.0600    9.2640 C   0  0  0  0  0  0  0  0  0  0  0  0
   23.4060   15.3410   10.5460 C   0  0  0  0  0  0  0  0  0  0  0  0
   24.0700   16.2860   11.3030 C   0  0  0  0  0  0  0  0  0  0  0  0
   25.1930   16.9270   10.7900 C   0  0  0  0  0  0  0  0  0  0  0  0
   25.7000   16.6650    9.5300 C   0  0  0  0  0  0  0  0  0  0  0  0
   25.6880   17.8640   11.8040 C   0  0  0  0  0  0  0  0  0  0  0  0
   26.6910   18.5450   11.6990 O   0  0  0  0  0  0  0  0  0  0  0  0
   24.8000   17.8090   12.8690 N   0  0  0  0  0  0  0  0  0  0  0  0
   25.1050   18.4180   14.1570 C   0  0  1  0  0  0  0  0  0  0  0  0
   26.2770   17.7400   14.8600 C   0  0  0  0  0  0  0  0  0  0  0  0
   26.4760   18.3680   16.2320 C   0  0  0  0  0  0  0  0  0  0  0  0
   26.6690   19.8630   16.1230 C   0  0  0  0  0  0  0  0  0  0  0  0
   27.4280   20.4830   16.8630 O   0  0  0  0  0  0  0  0  0  0  0  0
   25.9360   20.5080   15.1600 N   0  0  0  0  0  0  0  0  0  0  0  0
   25.3980   19.9230   14.0360 C   0  0  0  0  0  0  0  0  0  0  0  0
   25.1940   20.5940   13.0270 O   0  0  0  0  0  0  0  0  0  0  0  0
   23.7920   16.7710   12.6870 C   0  0  0  0  0  0  0  0  0  0  0  0
   24.6510   15.2110    6.3140 C   0  0  0  0  0  0  0  0  0  0  0  0
   25.1210   14.9040    5.0330 C   0  0  0  0  0  0  0  0  0  0  0  0
   24.6240   11.5370    4.0650 C   0  0  0  0  0  0  0  0  0  0  0  0
   24.3560   10.9980    5.2370 N   0  0  0  0  0  0  0  0  0  0  0  0
   24.7464    9.1845    8.6779 H   0  0  0  0  0  0  0  0  0  0  0  0
   23.8606    9.4192    7.1330 H   0  0  0  0  0  0  0  0  0  0  0  0
   25.4708    8.6230    7.1330 H   0  0  0  0  0  0  0  0  0  0  0  0
   25.0091   11.4905    8.0634 H   0  0  0  0  0  0  0  0  0  0  0  0
   26.5803   10.6483    7.7110 H   0  0  0  0  0  0  0  0  0  0  0  0
   27.4027   12.2882    5.6494 H   0  0  0  0  0  0  0  0  0  0  0  0
   28.4654   14.8166    5.6752 H   0  0  0  0  0  0  0  0  0  0  0  0
   27.6279   15.3683    7.9532 H   0  0  0  0  0  0  0  0  0  0  0  0
   23.3792   14.3115    8.6471 H   0  0  0  0  0  0  0  0  0  0  0  0
   22.5174   14.8242   10.9375 H   0  0  0  0  0  0  0  0  0  0  0  0
   26.5928   17.1903    9.1598 H   0  0  0  0  0  0  0  0  0  0  0  0
   24.1985   18.2775   14.7641 H   0  0  0  0  0  0  0  0  0  0  0  0
   26.0648   16.6668   14.9750 H   0  0  0  0  0  0  0  0  0  0  0  0
   27.1900   17.8704   14.2605 H   0  0  0  0  0  0  0  0  0  0  0  0
   25.5907   18.1643   16.8522 H   0  0  0  0  0  0  0  0  0  0  0  0
   27.3766   17.9317   16.6887 H   0  0  0  0  0  0  0  0  0  0  0  0
   25.7741   21.5170   15.2888 H   0  0  0  0  0  0  0  0  0  0  0  0
   23.9164   15.9633   13.4233 H   0  0  0  0  0  0  0  0  0  0  0  0
   22.7622   17.1322   12.8253 H   0  0  0  0  0  0  0  0  0  0  0  0
   23.5693   15.3175    6.4828 H   0  0  0  0  0  0  0  0  0  0  0  0
   24.4069   14.7719    4.2068 H   0  0  0  0  0  0  0  0  0  0  0  0
   23.9283   11.5628    3.2133 H   0  0  0  0  0  0  0  0  0  0  0  0
  1  2  1  0
  2  3  1  0
  3  4  2  0
  4  5  1  0
  5  6  1  0
  6  7  2  0
  6  8  2  0
  6  9  1  0
  9 10  1  0
 10 11  2  0
 11 12  1  0
 12 13  2  0
 13 14  1  0
 14 15  2  0
 15 16  1  0
 16 17  2  0
 17 18  1  0
 18 19  2  0
 18 20  1  0
 20 21  2  0
 20 22  1  0
 22 23  1  0
 23 24  1  0
 24 25  1  0
 25 26  1  0
 26 27  2  0
 26 28  1  0
 28 29  1  0
 29 30  2  0
 22 31  1  0
 13 32  1  0
 32 33  2  0
  5 34  1  0
 34 35  2  0
 35  3  1  0
 33 10  1  0
 19 14  1  0
 29 23  1  0
 31 17  1  0
  1 36  1  0
  1 37  1  0
  1 38  1  0
  2 39  1  0
  2 40  1  0
  4 41  1  0
 11 42  1  0
 12 43  1  0
 15 44  1  0
 16 45  1  0
 19 46  1  0
 23 47  1  1
 24 48  1  0
 24 49  1  0
 25 50  1  0
 25 51  1  0
 28 52  1  0
 31 53  1  0
 31 54  1  0
 32 55  1  0
 33 56  1  0
 34 57  1  0
M  END
>  <meeko>  (477) 
{"is_sidechain": [true], "free_energy": -12.4, "intermolecular_energy": 0.0, "internal_energy": -12.4, "cluster_size": 20, "cluster_id": 1, "rank_in_cluster": 1}

>  <_RMSD_MCS_to_ref>  (477) 
0.6098459732679319

$$$$
ligand
     RDKit          3D

 64 69  0  0  0  0  0  0  0  0999 V2000
   24.8710    9.6160    7.7820 C   0  0  0  0  0  0  0  0  0  0  0  0
   25.4240   10.9650    7.3490 C   0  0  0  0  0  0  0  0  0  0  0  0
   26.7630   11.2500    7.9350 C   0  0  0  0  0  0  0  0  0  0  0  0
   27.1220   12.2210    8.8500 C   0  0  0  0  0  0  0  0  0  0  0  0
   28.4600   12.0300    9.0370 N   0  0  0  0  0  0  0  0  0  0  0  0
   29.4970   13.1010    9.8310 S   0  0  0  0  0  6  0  0  0  0  0  0
   30.7920   12.8860    9.2120 O   0  0  0  0  0  0  0  0  0  0  0  0
   29.2790   12.8320   11.2400 O   0  0  0  0  0  0  0  0  0  0  0  0
   28.9210   14.5930    9.4960 O   0  0  0  0  0  0  0  0  0  0  0  0
   28.2850   14.7960    8.2960 C   0  0  0  0  0  0  0  0  0  0  0  0
   28.9530   14.4220    7.1270 C   0  0  0  0  0  0  0  0  0  0  0  0
   28.3140   14.6450    5.9210 C   0  0  0  0  0  0  0  0  0  0  0  0
   27.0530   15.2470    5.8750 C   0  0  0  0  0  0  0  0  0  0  0  0
   26.3990   15.6420    7.0330 C   0  0  0  0  0  0  0  0  0  0  0  0
   27.0130   15.4200    8.2790 C   0  0  0  0  0  0  0  0  0  0  0  0
   26.3300   15.8170    9.5220 C   0  0  0  0  0  0  0  0  0  0  0  0
   25.0640   15.2650    9.8510 C   0  0  0  0  0  0  0  0  0  0  0  0
   24.4090   15.5770   11.0500 C   0  0  0  0  0  0  0  0  0  0  0  0
   25.0350   16.4410   11.9260 C   0  0  0  0  0  0  0  0  0  0  0  0
   26.2700   16.9940   11.6020 C   0  0  0  0  0  0  0  0  0  0  0  0
   26.9310   16.7150   10.4200 C   0  0  0  0  0  0  0  0  0  0  0  0
   26.6900   17.8570   12.7110 C   0  0  0  0  0  0  0  0  0  0  0  0
   27.6910   18.5480   12.7070 O   0  0  0  0  0  0  0  0  0  0  0  0
   25.7270   17.7340   13.7000 N   0  0  0  0  0  0  0  0  0  0  0  0
   25.6530   18.5670   14.8940 C   0  0  1  0  0  0  0  0  0  0  0  0
   26.4650   18.0290   16.0700 C   0  0  0  0  0  0  0  0  0  0  0  0
   26.2840   18.9430   17.2700 C   0  0  0  0  0  0  0  0  0  0  0  0
   26.6730   20.3650   16.9400 C   0  0  0  0  0  0  0  0  0  0  0  0
   27.0130   21.1680   17.8040 O   0  0  0  0  0  0  0  0  0  0  0  0
   26.5470   20.7500   15.6290 N   0  0  0  0  0  0  0  0  0  0  0  0
   26.0450   20.0180   14.5770 C   0  0  0  0  0  0  0  0  0  0  0  0
   25.8390   20.5560   13.4900 O   0  0  0  0  0  0  0  0  0  0  0  0
   24.5940   16.9320   13.2640 C   0  0  0  0  0  0  0  0  0  0  0  0
   26.6010   15.4250    4.4580 C   0  0  0  0  0  0  0  0  0  0  0  0
   27.5250   14.4430    3.7250 C   0  0  0  0  0  0  0  0  0  0  0  0
   28.8230   14.3660    4.5420 C   0  0  0  0  0  0  0  0  0  0  0  0
   28.8790   11.0160    8.2370 C   0  0  0  0  0  0  0  0  0  0  0  0
   27.8670   10.5040    7.5670 N   0  0  0  0  0  0  0  0  0  0  0  0
   24.8497    9.5640    8.8806 H   0  0  0  0  0  0  0  0  0  0  0  0
   23.8507    9.4948    7.3893 H   0  0  0  0  0  0  0  0  0  0  0  0
   25.5127    8.8135    7.3893 H   0  0  0  0  0  0  0  0  0  0  0  0
   25.5100   10.9749    6.2524 H   0  0  0  0  0  0  0  0  0  0  0  0
   24.7312   11.7400    7.7087 H   0  0  0  0  0  0  0  0  0  0  0  0
   26.4758   12.9765    9.3208 H   0  0  0  0  0  0  0  0  0  0  0  0
   29.9532   13.9657    7.1648 H   0  0  0  0  0  0  0  0  0  0  0  0
   25.4115   16.1234    6.9774 H   0  0  0  0  0  0  0  0  0  0  0  0
   24.5834   14.5724    9.1444 H   0  0  0  0  0  0  0  0  0  0  0  0
   23.4249   15.1461   11.2862 H   0  0  0  0  0  0  0  0  0  0  0  0
   27.8996   17.1827   10.1894 H   0  0  0  0  0  0  0  0  0  0  0  0
   24.6011   18.5408   15.2146 H   0  0  0  0  0  0  0  0  0  0  0  0
   26.1165   17.0170   16.3239 H   0  0  0  0  0  0  0  0  0  0  0  0
   27.5293   17.9917   15.7945 H   0  0  0  0  0  0  0  0  0  0  0  0
   25.2288   18.9228   17.5799 H   0  0  0  0  0  0  0  0  0  0  0  0
   26.9346   18.5842   18.0812 H   0  0  0  0  0  0  0  0  0  0  0  0
   26.8671   21.7030   15.4048 H   0  0  0  0  0  0  0  0  0  0  0  0
   24.4121   16.0945   13.9536 H   0  0  0  0  0  0  0  0  0  0  0  0
   23.6483   17.4930   13.2331 H   0  0  0  0  0  0  0  0  0  0  0  0
   25.5428   15.1511    4.3350 H   0  0  0  0  0  0  0  0  0  0  0  0
   26.6608   16.4605    4.0916 H   0  0  0  0  0  0  0  0  0  0  0  0
   27.0541   13.4506    3.6668 H   0  0  0  0  0  0  0  0  0  0  0  0
   27.7238   14.7789    2.6966 H   0  0  0  0  0  0  0  0  0  0  0  0
   29.2826   13.3688    4.4758 H   0  0  0  0  0  0  0  0  0  0  0  0
   29.6115   15.0542    4.2035 H   0  0  0  0  0  0  0  0  0  0  0  0
   29.9202   10.6698    8.1591 H   0  0  0  0  0  0  0  0  0  0  0  0
  1  2  1  0
  2  3  1  0
  3  4  2  0
  4  5  1  0
  5  6  1  0
  6  7  2  0
  6  8  2  0
  6  9  1  0
  9 10  1  0
 10 11  2  0
 11 12  1  0
 12 13  2  0
 13 14  1  0
 14 15  2  0
 15 16  1  0
 16 17  2  0
 17 18  1  0
 18 19  2  0
 19 20  1  0
 20 21  2  0
 20 22  1  0
 22 23  2  0
 22 24  1  0
 24 25  1  0
 25 26  1  0
 26 27  1  0
 27 28  1  0
 28 29  2  0
 28 30  1  0
 30 31  1  0
 31 32  2  0
 24 33  1  0
 13 34  1  0
 34 35  1  0
 35 36  1  0
  5 37  1  0
 37 38  2  0
 38  3  1  0
 15 10  1  0
 21 16  1  0
 31 25  1  0
 36 12  1  0
 33 19  1  0
  1 39  1  0
  1 40  1  0
  1 41  1  0
  2 42  1  0
  2 43  1  0
  4 44  1  0
 11 45  1  0
 14 46  1  0
 17 47  1  0
 18 48  1  0
 21 49  1  0
 25 50  1  1
 26 51  1  0
 26 52  1  0
 27 53  1  0
 27 54  1  0
 30 55  1  0
 33 56  1  0
 33 57  1  0
 34 58  1  0
 34 59  1  0
 35 60  1  0
 35 61  1  0
 36 62  1  0
 36 63  1  0
 37 64  1  0
M  END
>  <meeko>  (478) 
{"is_sidechain": [true], "free_energy": -12.4, "intermolecular_energy": 0.0, "internal_energy": -12.4, "cluster_size": 9, "cluster_id": 1, "rank_in_cluster": 1}

>  <_RMSD_MCS_to_ref>  (478) 
1.1075179707596425

$$$$
ligand
     RDKit          3D

 55 59  0  0  0  0  0  0  0  0999 V2000
   24.8710    9.6160    7.7820 C   0  0  0  0  0  0  0  0  0  0  0  0
   25.4240   10.9650    7.3490 C   0  0  0  0  0  0  0  0  0  0  0  0
   26.6460   11.3420    8.1090 C   0  0  0  0  0  0  0  0  0  0  0  0
   27.8290   11.8790    7.6430 C   0  0  0  0  0  0  0  0  0  0  0  0
   28.6110   11.9890    8.7580 N   0  0  0  0  0  0  0  0  0  0  0  0
   30.0860   12.7970    8.8520 S   0  0  0  0  0  6  0  0  0  0  0  0
   30.6320   12.4170   10.1430 O   0  0  0  0  0  0  0  0  0  0  0  0
   30.7670   12.4640    7.6150 O   0  0  0  0  0  0  0  0  0  0  0  0
   29.7230   14.3880    8.8620 O   0  0  0  0  0  0  0  0  0  0  0  0
   28.4590   14.8350    8.9740 C   0  0  0  0  0  0  0  0  0  0  0  0
   27.7470   15.2730    7.8850 C   0  0  0  0  0  0  0  0  0  0  0  0
   26.5040   15.6470    8.3260 N   0  0  0  0  0  0  0  0  0  0  0  0
   26.4060   15.4490    9.6880 C   0  0  0  0  0  0  0  0  0  0  0  0
   25.1850   15.7290   10.4350 C   0  0  0  0  0  0  0  0  0  0  0  0
   23.9580   15.1620   10.0430 C   0  0  0  0  0  0  0  0  0  0  0  0
   22.7720   15.4070   10.7650 C   0  0  0  0  0  0  0  0  0  0  0  0
   22.7890   16.2190   11.8960 C   0  0  0  0  0  0  0  0  0  0  0  0
   24.0010   16.7690   12.2630 C   0  0  0  0  0  0  0  0  0  0  0  0
   25.1860   16.5450   11.5580 C   0  0  0  0  0  0  0  0  0  0  0  0
   26.3140   17.2500   12.2370 C   0  0  0  0  0  0  0  0  0  0  0  0
   25.6470   17.9570   13.3240 N   0  0  0  0  0  0  0  0  0  0  0  0
   26.3620   18.5870   14.4270 C   0  0  2  0  0  0  0  0  0  0  0  0
   26.0210   17.9610   15.7770 C   0  0  0  0  0  0  0  0  0  0  0  0
   26.8690   18.6080   16.8620 C   0  0  0  0  0  0  0  0  0  0  0  0
   26.6910   20.1080   16.8750 C   0  0  0  0  0  0  0  0  0  0  0  0
   26.7230   20.7660   17.9110 O   0  0  0  0  0  0  0  0  0  0  0  0
   26.5130   20.7160   15.6580 N   0  0  0  0  0  0  0  0  0  0  0  0
   26.0980   20.1010   14.4980 C   0  0  0  0  0  0  0  0  0  0  0  0
   25.5570   20.7550   13.6090 O   0  0  0  0  0  0  0  0  0  0  0  0
   24.3040   17.6330   13.4090 C   0  0  0  0  0  0  0  0  0  0  0  0
   23.5020   17.9750   14.2570 O   0  0  0  0  0  0  0  0  0  0  0  0
   27.6290   14.9540   10.1110 C   0  0  0  0  0  0  0  0  0  0  0  0
   27.8870   11.6160    9.8450 C   0  0  0  0  0  0  0  0  0  0  0  0
   26.6960   11.1910    9.4820 N   0  0  0  0  0  0  0  0  0  0  0  0
   24.8497    9.5640    8.8806 H   0  0  0  0  0  0  0  0  0  0  0  0
   23.8507    9.4948    7.3893 H   0  0  0  0  0  0  0  0  0  0  0  0
   25.5127    8.8135    7.3893 H   0  0  0  0  0  0  0  0  0  0  0  0
   25.6729   10.9187    6.2785 H   0  0  0  0  0  0  0  0  0  0  0  0
   24.6544   11.7251    7.5488 H   0  0  0  0  0  0  0  0  0  0  0  0
   28.0841   12.1555    6.6093 H   0  0  0  0  0  0  0  0  0  0  0  0
   28.1083   15.3160    6.8469 H   0  0  0  0  0  0  0  0  0  0  0  0
   25.7532   16.0210    7.7282 H   0  0  0  0  0  0  0  0  0  0  0  0
   23.9235   14.5141    9.1547 H   0  0  0  0  0  0  0  0  0  0  0  0
   21.8266   14.9535   10.4325 H   0  0  0  0  0  0  0  0  0  0  0  0
   21.8736   16.4144   12.4738 H   0  0  0  0  0  0  0  0  0  0  0  0
   27.0526   16.5333   12.6252 H   0  0  0  0  0  0  0  0  0  0  0  0
   26.8777   17.9154   11.5665 H   0  0  0  0  0  0  0  0  0  0  0  0
   27.4283   18.4162   14.2178 H   0  0  0  0  0  0  0  0  0  0  0  0
   24.9557   18.1230   15.9982 H   0  0  0  0  0  0  0  0  0  0  0  0
   26.2273   16.8810   15.7441 H   0  0  0  0  0  0  0  0  0  0  0  0
   26.5699   18.2030   17.8400 H   0  0  0  0  0  0  0  0  0  0  0  0
   27.9263   18.3852   16.6559 H   0  0  0  0  0  0  0  0  0  0  0  0
   26.7079   21.7261   15.6074 H   0  0  0  0  0  0  0  0  0  0  0  0
   27.9040   14.6996   11.1452 H   0  0  0  0  0  0  0  0  0  0  0  0
   28.2462   11.6627   10.8836 H   0  0  0  0  0  0  0  0  0  0  0  0
  1  2  1  0
  2  3  1  0
  3  4  2  0
  4  5  1  0
  5  6  1  0
  6  7  2  0
  6  8  2  0
  6  9  1  0
  9 10  1  0
 10 11  2  0
 11 12  1  0
 12 13  1  0
 13 14  1  0
 14 15  2  0
 15 16  1  0
 16 17  2  0
 17 18  1  0
 18 19  2  0
 19 20  1  0
 20 21  1  0
 21 22  1  0
 22 23  1  0
 23 24  1  0
 24 25  1  0
 25 26  2  0
 25 27  1  0
 27 28  1  0
 28 29  2  0
 21 30  1  0
 30 31  2  0
 13 32  2  0
  5 33  1  0
 33 34  2  0
 34  3  1  0
 32 10  1  0
 19 14  1  0
 28 22  1  0
 30 18  1  0
  1 35  1  0
  1 36  1  0
  1 37  1  0
  2 38  1  0
  2 39  1  0
  4 40  1  0
 11 41  1  0
 12 42  1  0
 15 43  1  0
 16 44  1  0
 17 45  1  0
 20 46  1  0
 20 47  1  0
 22 48  1  6
 23 49  1  0
 23 50  1  0
 24 51  1  0
 24 52  1  0
 27 53  1  0
 32 54  1  0
 33 55  1  0
M  END
>  <meeko>  (479) 
{"is_sidechain": [true], "free_energy": -12.4, "intermolecular_energy": 0.0, "internal_energy": -12.4, "cluster_size": 17, "cluster_id": 1, "rank_in_cluster": 1}

>  <_RMSD_MCS_to_ref>  (479) 
1.235989145044028

$$$$
ligand
     RDKit          3D

 56 60  0  0  0  0  0  0  0  0999 V2000
   24.8540    9.4020    7.6050 C   0  0  0  0  0  0  0  0  0  0  0  0
   25.5230   10.7550    7.4270 C   0  0  0  0  0  0  0  0  0  0  0  0
   25.4460   11.2410    6.0220 C   0  0  0  0  0  0  0  0  0  0  0  0
   25.9990   12.3770    5.4640 C   0  0  0  0  0  0  0  0  0  0  0  0
   25.5900   12.3430    4.1610 N   0  0  0  0  0  0  0  0  0  0  0  0
   26.1570   13.3390    2.9260 S   0  0  0  0  0  6  0  0  0  0  0  0
   25.0280   13.4990    2.0290 O   0  0  0  0  0  0  0  0  0  0  0  0
   27.3940   12.7220    2.4890 O   0  0  0  0  0  0  0  0  0  0  0  0
   26.4930   14.7740    3.6220 O   0  0  0  0  0  0  0  0  0  0  0  0
   26.0760   15.0810    4.8870 C   0  0  0  0  0  0  0  0  0  0  0  0
   27.0710   15.1510    5.8550 C   0  0  0  0  0  0  0  0  0  0  0  0
   26.7370   15.4570    7.1760 C   0  0  0  0  0  0  0  0  0  0  0  0
   25.4030   15.6860    7.5080 C   0  0  0  0  0  0  0  0  0  0  0  0
   24.9560   16.0180    8.8790 C   0  0  0  0  0  0  0  0  0  0  0  0
   23.7560   15.4850    9.4250 C   0  0  0  0  0  0  0  0  0  0  0  0
   23.3320   15.7930   10.7220 C   0  0  0  0  0  0  0  0  0  0  0  0
   24.1210   16.6500   11.4610 C   0  0  0  0  0  0  0  0  0  0  0  0
   25.2970   17.1980   10.9660 C   0  0  0  0  0  0  0  0  0  0  0  0
   25.7230   16.8930    9.6830 C   0  0  0  0  0  0  0  0  0  0  0  0
   25.9330   18.0630   11.9990 C   0  0  0  0  0  0  0  0  0  0  0  0
   24.9540   18.0420   13.0790 N   0  0  0  0  0  0  0  0  0  0  0  0
   25.2630   18.5950   14.3930 C   0  0  1  0  0  0  0  0  0  0  0  0
   26.4260   17.8960   15.0960 C   0  0  0  0  0  0  0  0  0  0  0  0
   26.6220   18.5080   16.4750 C   0  0  0  0  0  0  0  0  0  0  0  0
   26.8520   19.9980   16.3850 C   0  0  0  0  0  0  0  0  0  0  0  0
   27.4330   20.6250   17.2670 O   0  0  0  0  0  0  0  0  0  0  0  0
   26.3040   20.6430   15.3040 N   0  0  0  0  0  0  0  0  0  0  0  0
   25.5120   20.1100   14.3140 C   0  0  0  0  0  0  0  0  0  0  0  0
   24.9670   20.8470   13.4920 O   0  0  0  0  0  0  0  0  0  0  0  0
   23.9280   17.1420   12.8290 C   0  0  0  0  0  0  0  0  0  0  0  0
   23.0340   16.7870   13.5720 O   0  0  0  0  0  0  0  0  0  0  0  0
   24.4260   15.6300    6.5680 N   0  0  0  0  0  0  0  0  0  0  0  0
   24.7740   15.3280    5.2930 C   0  0  0  0  0  0  0  0  0  0  0  0
   24.8980   11.1950    3.9420 C   0  0  0  0  0  0  0  0  0  0  0  0
   24.7720   10.5130    5.0610 N   0  0  0  0  0  0  0  0  0  0  0  0
   24.7464    9.1845    8.6779 H   0  0  0  0  0  0  0  0  0  0  0  0
   23.8606    9.4192    7.1330 H   0  0  0  0  0  0  0  0  0  0  0  0
   25.4708    8.6230    7.1330 H   0  0  0  0  0  0  0  0  0  0  0  0
   25.0250   11.4851    8.0820 H   0  0  0  0  0  0  0  0  0  0  0  0
   26.5859   10.6425    7.6872 H   0  0  0  0  0  0  0  0  0  0  0  0
   26.6254   13.1355    5.9562 H   0  0  0  0  0  0  0  0  0  0  0  0
   28.1201   14.9656    5.5809 H   0  0  0  0  0  0  0  0  0  0  0  0
   27.5193   15.5167    7.9470 H   0  0  0  0  0  0  0  0  0  0  0  0
   23.1430   14.8105    8.8092 H   0  0  0  0  0  0  0  0  0  0  0  0
   22.4057   15.3685   11.1364 H   0  0  0  0  0  0  0  0  0  0  0  0
   26.6537   17.3296    9.2916 H   0  0  0  0  0  0  0  0  0  0  0  0
   26.8961   17.6457   12.3281 H   0  0  0  0  0  0  0  0  0  0  0  0
   26.1647   19.0761   11.6386 H   0  0  0  0  0  0  0  0  0  0  0  0
   24.3716   18.4083   15.0099 H   0  0  0  0  0  0  0  0  0  0  0  0
   26.2024   16.8239   15.1984 H   0  0  0  0  0  0  0  0  0  0  0  0
   27.3440   18.0224   14.5033 H   0  0  0  0  0  0  0  0  0  0  0  0
   25.7240   18.3198   17.0817 H   0  0  0  0  0  0  0  0  0  0  0  0
   27.5071   18.0468   16.9376 H   0  0  0  0  0  0  0  0  0  0  0  0
   26.5113   21.6488   15.2248 H   0  0  0  0  0  0  0  0  0  0  0  0
   23.9768   15.2760    4.5368 H   0  0  0  0  0  0  0  0  0  0  0  0
   24.4989   10.8794    2.9667 H   0  0  0  0  0  0  0  0  0  0  0  0
  1  2  1  0
  2  3  1  0
  3  4  2  0
  4  5  1  0
  5  6  1  0
  6  7  2  0
  6  8  2  0
  6  9  1  0
  9 10  1  0
 10 11  2  0
 11 12  1  0
 12 13  2  0
 13 14  1  0
 14 15  2  0
 15 16  1  0
 16 17  2  0
 17 18  1  0
 18 19  2  0
 18 20  1  0
 20 21  1  0
 21 22  1  0
 22 23  1  0
 23 24  1  0
 24 25  1  0
 25 26  2  0
 25 27  1  0
 27 28  1  0
 28 29  2  0
 21 30  1  0
 30 31  2  0
 13 32  1  0
 32 33  2  0
  5 34  1  0
 34 35  2  0
 35  3  1  0
 33 10  1  0
 19 14  1  0
 28 22  1  0
 30 17  1  0
  1 36  1  0
  1 37  1  0
  1 38  1  0
  2 39  1  0
  2 40  1  0
  4 41  1  0
 11 42  1  0
 12 43  1  0
 15 44  1  0
 16 45  1  0
 19 46  1  0
 20 47  1  0
 20 48  1  0
 22 49  1  1
 23 50  1  0
 23 51  1  0
 24 52  1  0
 24 53  1  0
 27 54  1  0
 33 55  1  0
 34 56  1  0
M  END
>  <meeko>  (480) 
{"is_sidechain": [true], "free_energy": -12.39, "intermolecular_energy": 0.0, "internal_energy": -12.39, "cluster_size": 18, "cluster_id": 1, "rank_in_cluster": 1}

>  <_RMSD_MCS_to_ref>  (480) 
0.4718739238398315

$$$$
ligand
     RDKit          3D

 59 64  0  0  0  0  0  0  0  0999 V2000
   24.8710    9.6160    7.7820 C   0  0  0  0  0  0  0  0  0  0  0  0
   25.4240   10.9650    7.3490 C   0  0  0  0  0  0  0  0  0  0  0  0
   26.8740   11.1020    7.6510 C   0  0  0  0  0  0  0  0  0  0  0  0
   27.4860   11.7780    8.6890 C   0  0  0  0  0  0  0  0  0  0  0  0
   28.8200   11.5570    8.4900 N   0  0  0  0  0  0  0  0  0  0  0  0
   30.0670   12.1720    9.4410 S   0  0  0  0  0  6  0  0  0  0  0  0
   31.2380   11.3620    9.1550 O   0  0  0  0  0  0  0  0  0  0  0  0
   29.4990   12.1860   10.7790 O   0  0  0  0  0  0  0  0  0  0  0  0
   30.3500   13.7200    9.0260 O   0  0  0  0  0  0  0  0  0  0  0  0
   29.7250   14.3370    8.0160 C   0  0  0  0  0  0  0  0  0  0  0  0
   30.3460   14.5240    6.8520 N   0  0  0  0  0  0  0  0  0  0  0  0
   29.4030   15.1380    6.1000 N   0  0  0  0  0  0  0  0  0  0  0  0
   28.2180   15.3220    6.7540 C   0  0  0  0  0  0  0  0  0  0  0  0
   27.1100   15.8930    6.2500 N   0  0  0  0  0  0  0  0  0  0  0  0
   26.0890   15.9240    7.1450 C   0  0  0  0  0  0  0  0  0  0  0  0
   26.1170   15.4410    8.4610 C   0  0  0  0  0  0  0  0  0  0  0  0
   24.9440   15.5410    9.3320 C   0  0  0  0  0  0  0  0  0  0  0  0
   23.7170   14.9500    8.9650 C   0  0  0  0  0  0  0  0  0  0  0  0
   22.5800   15.0250    9.7940 C   0  0  0  0  0  0  0  0  0  0  0  0
   22.6360   15.6980   11.0120 C   0  0  0  0  0  0  0  0  0  0  0  0
   23.8400   16.2790   11.3570 C   0  0  0  0  0  0  0  0  0  0  0  0
   24.9780   16.2140   10.5490 C   0  0  0  0  0  0  0  0  0  0  0  0
   26.1040   16.9410   11.2140 C   0  0  0  0  0  0  0  0  0  0  0  0
   25.4800   17.4810   12.4150 N   0  0  0  0  0  0  0  0  0  0  0  0
   26.2340   18.0460   13.5270 C   0  0  2  0  0  0  0  0  0  0  0  0
   25.8040   17.4750   14.8750 C   0  0  0  0  0  0  0  0  0  0  0  0
   26.6950   18.0410   15.9700 C   0  0  0  0  0  0  0  0  0  0  0  0
   26.6800   19.5520   15.9630 C   0  0  0  0  0  0  0  0  0  0  0  0
   26.7510   20.2140   16.9930 O   0  0  0  0  0  0  0  0  0  0  0  0
   26.6010   20.1590   14.7360 N   0  0  0  0  0  0  0  0  0  0  0  0
   26.1280   19.5800   13.5800 C   0  0  0  0  0  0  0  0  0  0  0  0
   25.6510   20.2750   12.6860 O   0  0  0  0  0  0  0  0  0  0  0  0
   24.1730   17.0410   12.5650 C   0  0  0  0  0  0  0  0  0  0  0  0
   23.4230   17.2300   13.5030 O   0  0  0  0  0  0  0  0  0  0  0  0
   27.3100   14.8530    8.9140 C   0  0  0  0  0  0  0  0  0  0  0  0
   28.3940   14.7990    8.0240 C   0  0  0  0  0  0  0  0  0  0  0  0
   28.9870   10.8050    7.3720 C   0  0  0  0  0  0  0  0  0  0  0  0
   27.8190   10.5030    6.8390 N   0  0  0  0  0  0  0  0  0  0  0  0
   24.8497    9.5640    8.8806 H   0  0  0  0  0  0  0  0  0  0  0  0
   23.8507    9.4948    7.3893 H   0  0  0  0  0  0  0  0  0  0  0  0
   25.5127    8.8135    7.3893 H   0  0  0  0  0  0  0  0  0  0  0  0
   25.2760   11.0768    6.2647 H   0  0  0  0  0  0  0  0  0  0  0  0
   24.8876   11.7450    7.9093 H   0  0  0  0  0  0  0  0  0  0  0  0
   27.0092   12.3603    9.4912 H   0  0  0  0  0  0  0  0  0  0  0  0
   29.5635   15.4378    5.1278 H   0  0  0  0  0  0  0  0  0  0  0  0
   25.1450   16.3733    6.8030 H   0  0  0  0  0  0  0  0  0  0  0  0
   23.6458   14.4162    8.0058 H   0  0  0  0  0  0  0  0  0  0  0  0
   21.6409   14.5483    9.4766 H   0  0  0  0  0  0  0  0  0  0  0  0
   21.7580   15.7639   11.6714 H   0  0  0  0  0  0  0  0  0  0  0  0
   26.9233   16.2528   11.4692 H   0  0  0  0  0  0  0  0  0  0  0  0
   26.5585   17.7135   10.5763 H   0  0  0  0  0  0  0  0  0  0  0  0
   27.2803   17.7626   13.3402 H   0  0  0  0  0  0  0  0  0  0  0  0
   24.7579   17.7509   15.0737 H   0  0  0  0  0  0  0  0  0  0  0  0
   25.8957   16.3790   14.8562 H   0  0  0  0  0  0  0  0  0  0  0  0
   26.3346   17.6835   16.9459 H   0  0  0  0  0  0  0  0  0  0  0  0
   27.7259   17.7029   15.7885 H   0  0  0  0  0  0  0  0  0  0  0  0
   26.9243   21.1350   14.6737 H   0  0  0  0  0  0  0  0  0  0  0  0
   27.3918   14.4480    9.9334 H   0  0  0  0  0  0  0  0  0  0  0  0
   29.9606   10.4914    6.9672 H   0  0  0  0  0  0  0  0  0  0  0  0
  1  2  1  0
  2  3  1  0
  3  4  2  0
  4  5  1  0
  5  6  1  0
  6  7  2  0
  6  8  2  0
  6  9  1  0
  9 10  1  0
 10 11  2  0
 11 12  1  0
 12 13  1  0
 13 14  2  0
 14 15  1  0
 15 16  2  0
 16 17  1  0
 17 18  2  0
 18 19  1  0
 19 20  2  0
 20 21  1  0
 21 22  2  0
 22 23  1  0
 23 24  1  0
 24 25  1  0
 25 26  1  0
 26 27  1  0
 27 28  1  0
 28 29  2  0
 28 30  1  0
 30 31  1  0
 31 32  2  0
 24 33  1  0
 33 34  2  0
 16 35  1  0
 35 36  2  0
  5 37  1  0
 37 38  2  0
 38  3  1  0
 36 10  1  0
 36 13  1  0
 22 17  1  0
 31 25  1  0
 33 21  1  0
  1 39  1  0
  1 40  1  0
  1 41  1  0
  2 42  1  0
  2 43  1  0
  4 44  1  0
 12 45  1  0
 15 46  1  0
 18 47  1  0
 19 48  1  0
 20 49  1  0
 23 50  1  0
 23 51  1  0
 25 52  1  6
 26 53  1  0
 26 54  1  0
 27 55  1  0
 27 56  1  0
 30 57  1  0
 35 58  1  0
 37 59  1  0
M  END
>  <meeko>  (481) 
{"is_sidechain": [true], "free_energy": -12.39, "intermolecular_energy": 0.0, "internal_energy": -12.39, "cluster_size": 4, "cluster_id": 1, "rank_in_cluster": 1}

>  <_RMSD_MCS_to_ref>  (481) 
1.1599350556532613

$$$$
ligand
     RDKit          3D

 63 68  0  0  0  0  0  0  0  0999 V2000
   24.8710    9.6160    7.7820 C   0  0  0  0  0  0  0  0  0  0  0  0
   25.4240   10.9650    7.3490 C   0  0  0  0  0  0  0  0  0  0  0  0
   26.9070   11.0320    7.4560 C   0  0  0  0  0  0  0  0  0  0  0  0
   27.7350   12.1350    7.3770 C   0  0  0  0  0  0  0  0  0  0  0  0
   28.9930   11.6260    7.5300 N   0  0  0  0  0  0  0  0  0  0  0  0
   30.4100   12.5300    7.7500 S   0  0  0  0  0  6  0  0  0  0  0  0
   30.8150   12.8830    6.4010 O   0  0  0  0  0  0  0  0  0  0  0  0
   31.2500   11.6960    8.5890 O   0  0  0  0  0  0  0  0  0  0  0  0
   30.0660   13.9170    8.5570 O   0  0  0  0  0  0  0  0  0  0  0  0
   28.7690   14.1840    8.8780 C   0  0  0  0  0  0  0  0  0  0  0  0
   28.2780   13.7370   10.1060 C   0  0  0  0  0  0  0  0  0  0  0  0
   27.0030   14.1310   10.5360 C   0  0  0  0  0  0  0  0  0  0  0  0
   26.1920   14.9540    9.7370 C   0  0  0  0  0  0  0  0  0  0  0  0
   24.9580   15.5250   10.2690 C   0  0  0  0  0  0  0  0  0  0  0  0
   23.7300   15.4330    9.5960 C   0  0  0  0  0  0  0  0  0  0  0  0
   22.5620   16.0200   10.1240 C   0  0  0  0  0  0  0  0  0  0  0  0
   22.5960   16.7140   11.3360 C   0  0  0  0  0  0  0  0  0  0  0  0
   23.8120   16.7900   11.9880 C   0  0  0  0  0  0  0  0  0  0  0  0
   24.9710   16.2130   11.4780 C   0  0  0  0  0  0  0  0  0  0  0  0
   26.1190   16.4880   12.3940 C   0  0  0  0  0  0  0  0  0  0  0  0
   25.4890   17.1880   13.5000 N   0  0  0  0  0  0  0  0  0  0  0  0
   26.3060   17.8530   14.5090 C   0  0  2  0  0  0  0  0  0  0  0  0
   25.7100   17.8040   15.9130 C   0  0  0  0  0  0  0  0  0  0  0  0
   26.6810   18.4500   16.8900 C   0  0  0  0  0  0  0  0  0  0  0  0
   27.0090   19.8670   16.4820 C   0  0  0  0  0  0  0  0  0  0  0  0
   27.3900   20.7090   17.2900 O   0  0  0  0  0  0  0  0  0  0  0  0
   26.9350   20.1560   15.1420 N   0  0  0  0  0  0  0  0  0  0  0  0
   26.6160   19.3050   14.1080 C   0  0  0  0  0  0  0  0  0  0  0  0
   26.6790   19.6950   12.9420 O   0  0  0  0  0  0  0  0  0  0  0  0
   24.1530   17.4590   13.2500 C   0  0  0  0  0  0  0  0  0  0  0  0
   23.3810   18.1290   13.9090 O   0  0  0  0  0  0  0  0  0  0  0  0
   26.6690   15.2880    8.4710 C   0  0  0  0  0  0  0  0  0  0  0  0
   27.9410   14.9080    8.0420 C   0  0  0  0  0  0  0  0  0  0  0  0
   28.1840   15.4590    6.6760 C   0  0  0  0  0  0  0  0  0  0  0  0
   26.8710   15.9490    6.2160 N   0  0  0  0  0  0  0  0  0  0  0  0
   26.0250   16.1270    7.4120 C   0  0  0  0  0  0  0  0  0  0  0  0
   28.9050   10.2830    7.7270 C   0  0  0  0  0  0  0  0  0  0  0  0
   27.6480    9.8890    7.6890 N   0  0  0  0  0  0  0  0  0  0  0  0
   24.8497    9.5640    8.8806 H   0  0  0  0  0  0  0  0  0  0  0  0
   23.8507    9.4948    7.3893 H   0  0  0  0  0  0  0  0  0  0  0  0
   25.5127    8.8135    7.3893 H   0  0  0  0  0  0  0  0  0  0  0  0
   25.1370   11.1448    6.3024 H   0  0  0  0  0  0  0  0  0  0  0  0
   25.0048   11.7297    8.0194 H   0  0  0  0  0  0  0  0  0  0  0  0
   27.4463   13.1855    7.2252 H   0  0  0  0  0  0  0  0  0  0  0  0
   28.8912   13.0759   10.7360 H   0  0  0  0  0  0  0  0  0  0  0  0
   26.6320   13.7905   11.5140 H   0  0  0  0  0  0  0  0  0  0  0  0
   23.6778   14.8930    8.6391 H   0  0  0  0  0  0  0  0  0  0  0  0
   21.6128   15.9305    9.5753 H   0  0  0  0  0  0  0  0  0  0  0  0
   21.6919   17.1808   11.7541 H   0  0  0  0  0  0  0  0  0  0  0  0
   26.5880   15.5526   12.7331 H   0  0  0  0  0  0  0  0  0  0  0  0
   26.9269   17.0635   11.9185 H   0  0  0  0  0  0  0  0  0  0  0  0
   27.2449   17.2813   14.5497 H   0  0  0  0  0  0  0  0  0  0  0  0
   24.7555   18.3505   15.9270 H   0  0  0  0  0  0  0  0  0  0  0  0
   25.5334   16.7579   16.2038 H   0  0  0  0  0  0  0  0  0  0  0  0
   26.2267   18.4616   17.8917 H   0  0  0  0  0  0  0  0  0  0  0  0
   27.6124   17.8648   16.8918 H   0  0  0  0  0  0  0  0  0  0  0  0
   27.1439   21.1294   14.8777 H   0  0  0  0  0  0  0  0  0  0  0  0
   28.9106   16.2838    6.7167 H   0  0  0  0  0  0  0  0  0  0  0  0
   28.6008   14.7016    5.9959 H   0  0  0  0  0  0  0  0  0  0  0  0
   26.9823   16.8482    5.7261 H   0  0  0  0  0  0  0  0  0  0  0  0
   26.0032   17.1839    7.7163 H   0  0  0  0  0  0  0  0  0  0  0  0
   24.9818   15.8305    7.2278 H   0  0  0  0  0  0  0  0  0  0  0  0
   29.7646    9.6175    7.8949 H   0  0  0  0  0  0  0  0  0  0  0  0
  1  2  1  0
  2  3  1  0
  3  4  2  0
  4  5  1  0
  5  6  1  0
  6  7  2  0
  6  8  2  0
  6  9  1  0
  9 10  1  0
 10 11  2  0
 11 12  1  0
 12 13  2  0
 13 14  1  0
 14 15  2  0
 15 16  1  0
 16 17  2  0
 17 18  1  0
 18 19  2  0
 19 20  1  0
 20 21  1  0
 21 22  1  0
 22 23  1  0
 23 24  1  0
 24 25  1  0
 25 26  2  0
 25 27  1  0
 27 28  1  0
 28 29  2  0
 21 30  1  0
 30 31  2  0
 13 32  1  0
 32 33  2  0
 33 34  1  0
 34 35  1  0
 35 36  1  0
  5 37  1  0
 37 38  2  0
 38  3  1  0
 33 10  1  0
 19 14  1  0
 28 22  1  0
 36 32  1  0
 30 18  1  0
  1 39  1  0
  1 40  1  0
  1 41  1  0
  2 42  1  0
  2 43  1  0
  4 44  1  0
 11 45  1  0
 12 46  1  0
 15 47  1  0
 16 48  1  0
 17 49  1  0
 20 50  1  0
 20 51  1  0
 22 52  1  1
 23 53  1  0
 23 54  1  0
 24 55  1  0
 24 56  1  0
 27 57  1  0
 34 58  1  0
 34 59  1  0
 35 60  1  0
 36 61  1  0
 36 62  1  0
 37 63  1  0
M  END
>  <meeko>  (482) 
{"is_sidechain": [true], "free_energy": -12.39, "intermolecular_energy": 0.0, "internal_energy": -12.39, "cluster_size": 1, "cluster_id": 2, "rank_in_cluster": 1}

>  <_RMSD_MCS_to_ref>  (482) 
1.3314853860757665

$$$$
ligand
     RDKit          3D

 60 64  0  0  0  0  0  0  0  0999 V2000
   24.8540    9.4020    7.6050 C   0  0  0  0  0  0  0  0  0  0  0  0
   25.5230   10.7550    7.4270 C   0  0  0  0  0  0  0  0  0  0  0  0
   25.2810   11.3280    6.0740 C   0  0  0  0  0  0  0  0  0  0  0  0
   24.2300   12.1060    5.6350 C   0  0  0  0  0  0  0  0  0  0  0  0
   24.5010   12.3210    4.3140 N   0  0  0  0  0  0  0  0  0  0  0  0
   23.6680   13.3670    3.2980 S   0  0  0  0  0  6  0  0  0  0  0  0
   24.0710   13.0230    1.9490 O   0  0  0  0  0  0  0  0  0  0  0  0
   22.2840   13.3190    3.7290 O   0  0  0  0  0  0  0  0  0  0  0  0
   24.3310   14.9600    3.7000 C   0  0  0  0  0  0  0  0  0  0  0  0
   24.7280   15.8240    2.6740 C   0  0  0  0  0  0  0  0  0  0  0  0
   25.2470   17.0800    2.9920 C   0  0  0  0  0  0  0  0  0  0  0  0
   25.3830   17.4630    4.3290 C   0  0  0  0  0  0  0  0  0  0  0  0
   25.0140   16.5820    5.3560 C   0  0  0  0  0  0  0  0  0  0  0  0
   25.1380   16.9550    6.7920 C   0  0  0  0  0  0  0  0  0  0  0  0
   25.8350   17.9240    7.0720 O   0  0  0  0  0  0  0  0  0  0  0  0
   24.4080   16.1730    7.6650 N   0  0  0  0  0  0  0  0  0  0  0  0
   24.3720   16.2660    9.0740 C   0  0  0  0  0  0  0  0  0  0  0  0
   23.3160   15.7720    9.8650 C   0  0  0  0  0  0  0  0  0  0  0  0
   23.3230   15.8980   11.2630 C   0  0  0  0  0  0  0  0  0  0  0  0
   24.4010   16.5230   11.8580 C   0  0  0  0  0  0  0  0  0  0  0  0
   25.4390   17.0080   11.0700 C   0  0  0  0  0  0  0  0  0  0  0  0
   25.4550   16.9010    9.6920 C   0  0  0  0  0  0  0  0  0  0  0  0
   26.4360   17.6200   11.9540 C   0  0  0  0  0  0  0  0  0  0  0  0
   27.4430   18.1890   11.5800 O   0  0  0  0  0  0  0  0  0  0  0  0
   25.9960   17.4180   13.2540 N   0  0  0  0  0  0  0  0  0  0  0  0
   26.6000   18.1080   14.3880 C   0  0  2  0  0  0  0  0  0  0  0  0
   25.9430   17.7370   15.7150 C   0  0  0  0  0  0  0  0  0  0  0  0
   26.6830   18.4230   16.8530 C   0  0  0  0  0  0  0  0  0  0  0  0
   26.7340   19.9180   16.6480 C   0  0  0  0  0  0  0  0  0  0  0  0
   26.6740   20.7120   17.5820 O   0  0  0  0  0  0  0  0  0  0  0  0
   26.8730   20.3560   15.3560 N   0  0  0  0  0  0  0  0  0  0  0  0
   26.5660   19.6370   14.2230 C   0  0  0  0  0  0  0  0  0  0  0  0
   26.2860   20.2170   13.1770 O   0  0  0  0  0  0  0  0  0  0  0  0
   24.6690   16.8130   13.2960 C   0  0  0  0  0  0  0  0  0  0  0  0
   24.4780   15.3280    5.0390 C   0  0  0  0  0  0  0  0  0  0  0  0
   25.6910   11.7440    4.0040 C   0  0  0  0  0  0  0  0  0  0  0  0
   26.1860   11.1190    5.0520 N   0  0  0  0  0  0  0  0  0  0  0  0
   24.7464    9.1845    8.6779 H   0  0  0  0  0  0  0  0  0  0  0  0
   23.8606    9.4192    7.1330 H   0  0  0  0  0  0  0  0  0  0  0  0
   25.4708    8.6230    7.1330 H   0  0  0  0  0  0  0  0  0  0  0  0
   25.1252   11.4490    8.1821 H   0  0  0  0  0  0  0  0  0  0  0  0
   26.6075   10.6139    7.5451 H   0  0  0  0  0  0  0  0  0  0  0  0
   23.3700   12.4701    6.2162 H   0  0  0  0  0  0  0  0  0  0  0  0
   24.6317   15.5153    1.6226 H   0  0  0  0  0  0  0  0  0  0  0  0
   25.5492   17.7690    2.1895 H   0  0  0  0  0  0  0  0  0  0  0  0
   25.7806   18.4583    4.5767 H   0  0  0  0  0  0  0  0  0  0  0  0
   23.8235   15.4387    7.2407 H   0  0  0  0  0  0  0  0  0  0  0  0
   22.4654   15.2755    9.3752 H   0  0  0  0  0  0  0  0  0  0  0  0
   22.4914   15.5090   11.8688 H   0  0  0  0  0  0  0  0  0  0  0  0
   26.2915   17.3018    9.1007 H   0  0  0  0  0  0  0  0  0  0  0  0
   27.6473   17.7723   14.4068 H   0  0  0  0  0  0  0  0  0  0  0  0
   24.8931   18.0650   15.7093 H   0  0  0  0  0  0  0  0  0  0  0  0
   25.9843   16.6466   15.8538 H   0  0  0  0  0  0  0  0  0  0  0  0
   26.1648   18.2080   17.7992 H   0  0  0  0  0  0  0  0  0  0  0  0
   27.7137   18.0396   16.8796 H   0  0  0  0  0  0  0  0  0  0  0  0
   27.2402   21.3088   15.2212 H   0  0  0  0  0  0  0  0  0  0  0  0
   24.6718   15.8897   13.8939 H   0  0  0  0  0  0  0  0  0  0  0  0
   23.9084   17.4561   13.7629 H   0  0  0  0  0  0  0  0  0  0  0  0
   24.1747   14.6372    5.8395 H   0  0  0  0  0  0  0  0  0  0  0  0
   26.1733   11.7921    3.0165 H   0  0  0  0  0  0  0  0  0  0  0  0
  1  2  1  0
  2  3  1  0
  3  4  2  0
  4  5  1  0
  5  6  1  0
  6  7  2  0
  6  8  2  0
  6  9  1  0
  9 10  2  0
 10 11  1  0
 11 12  2  0
 12 13  1  0
 13 14  1  0
 14 15  2  0
 14 16  1  0
 16 17  1  0
 17 18  2  0
 18 19  1  0
 19 20  2  0
 20 21  1  0
 21 22  2  0
 21 23  1  0
 23 24  2  0
 23 25  1  0
 25 26  1  0
 26 27  1  0
 27 28  1  0
 28 29  1  0
 29 30  2  0
 29 31  1  0
 31 32  1  0
 32 33  2  0
 25 34  1  0
 13 35  2  0
  5 36  1  0
 36 37  2  0
 37  3  1  0
 35  9  1  0
 22 17  1  0
 32 26  1  0
 34 20  1  0
  1 38  1  0
  1 39  1  0
  1 40  1  0
  2 41  1  0
  2 42  1  0
  4 43  1  0
 10 44  1  0
 11 45  1  0
 12 46  1  0
 16 47  1  0
 18 48  1  0
 19 49  1  0
 22 50  1  0
 26 51  1  1
 27 52  1  0
 27 53  1  0
 28 54  1  0
 28 55  1  0
 31 56  1  0
 34 57  1  0
 34 58  1  0
 35 59  1  0
 36 60  1  0
M  END
>  <meeko>  (483) 
{"is_sidechain": [true], "free_energy": -12.38, "intermolecular_energy": 0.0, "internal_energy": -12.38, "cluster_size": 20, "cluster_id": 1, "rank_in_cluster": 1}

>  <_RMSD_MCS_to_ref>  (483) 
1.1522920094316365

$$$$
ligand
     RDKit          3D

 60 65  0  0  0  0  0  0  0  0999 V2000
   24.8540    9.4020    7.6050 C   0  0  0  0  0  0  0  0  0  0  0  0
   25.5230   10.7550    7.4270 C   0  0  0  0  0  0  0  0  0  0  0  0
   25.0700   11.4480    6.1920 C   0  0  0  0  0  0  0  0  0  0  0  0
   25.3640   12.7230    5.7510 C   0  0  0  0  0  0  0  0  0  0  0  0
   24.6550   12.8510    4.5890 N   0  0  0  0  0  0  0  0  0  0  0  0
   24.7660   14.1470    3.5140 S   0  0  0  0  0  6  0  0  0  0  0  0
   23.4700   14.1730    2.8570 O   0  0  0  0  0  0  0  0  0  0  0  0
   25.9710   13.9120    2.7400 O   0  0  0  0  0  0  0  0  0  0  0  0
   24.9110   15.5250    4.3850 O   0  0  0  0  0  0  0  0  0  0  0  0
   25.9790   15.7550    5.1700 C   0  0  0  0  0  0  0  0  0  0  0  0
   27.2410   15.9200    4.6590 C   0  0  0  0  0  0  0  0  0  0  0  0
   28.0780   16.1670    5.7160 N   0  0  0  0  0  0  0  0  0  0  0  0
   27.3750   16.1200    6.9010 C   0  0  0  0  0  0  0  0  0  0  0  0
   27.8150   16.3040    8.2150 C   0  0  0  0  0  0  0  0  0  0  0  0
   26.8650   16.1980    9.2390 C   0  0  0  0  0  0  0  0  0  0  0  0
   25.5210   15.9050    8.9750 C   0  0  0  0  0  0  0  0  0  0  0  0
   24.5420   15.8040   10.0620 C   0  0  0  0  0  0  0  0  0  0  0  0
   23.3640   15.0440    9.9020 C   0  0  0  0  0  0  0  0  0  0  0  0
   22.3900   14.9550   10.9180 C   0  0  0  0  0  0  0  0  0  0  0  0
   22.5640   15.6260   12.1270 C   0  0  0  0  0  0  0  0  0  0  0  0
   23.7200   16.3660   12.2760 C   0  0  0  0  0  0  0  0  0  0  0  0
   24.6870   16.4520   11.2840 C   0  0  0  0  0  0  0  0  0  0  0  0
   25.7710   17.2830   11.8270 C   0  0  0  0  0  0  0  0  0  0  0  0
   26.8420   17.4840   11.2880 O   0  0  0  0  0  0  0  0  0  0  0  0
   25.3600   17.7250   13.0560 N   0  0  0  0  0  0  0  0  0  0  0  0
   26.1890   18.4770   13.9840 C   0  0  2  0  0  0  0  0  0  0  0  0
   26.1330   17.9710   15.4240 C   0  0  0  0  0  0  0  0  0  0  0  0
   27.0670   18.8090   16.2850 C   0  0  0  0  0  0  0  0  0  0  0  0
   26.7300   20.2800   16.1950 C   0  0  0  0  0  0  0  0  0  0  0  0
   27.0060   21.0700   17.0930 O   0  0  0  0  0  0  0  0  0  0  0  0
   26.1570   20.7100   15.0240 N   0  0  0  0  0  0  0  0  0  0  0  0
   25.8010   19.9580   13.9280 C   0  0  0  0  0  0  0  0  0  0  0  0
   25.2680   20.4900   12.9540 O   0  0  0  0  0  0  0  0  0  0  0  0
   24.1670   17.1650   13.4140 C   0  0  0  0  0  0  0  0  0  0  0  0
   23.5510   17.2780   14.4570 O   0  0  0  0  0  0  0  0  0  0  0  0
   25.1200   15.7040    7.6390 C   0  0  0  0  0  0  0  0  0  0  0  0
   26.0450   15.8360    6.5850 C   0  0  0  0  0  0  0  0  0  0  0  0
   24.0350   11.6730    4.3180 C   0  0  0  0  0  0  0  0  0  0  0  0
   24.2470   10.8070    5.2880 N   0  0  0  0  0  0  0  0  0  0  0  0
   24.7464    9.1845    8.6779 H   0  0  0  0  0  0  0  0  0  0  0  0
   23.8606    9.4192    7.1330 H   0  0  0  0  0  0  0  0  0  0  0  0
   25.4708    8.6230    7.1330 H   0  0  0  0  0  0  0  0  0  0  0  0
   25.2827   11.3859    8.2955 H   0  0  0  0  0  0  0  0  0  0  0  0
   26.6067   10.5870    7.3415 H   0  0  0  0  0  0  0  0  0  0  0  0
   26.0199   13.4670    6.2267 H   0  0  0  0  0  0  0  0  0  0  0  0
   27.5280   15.8645    3.5986 H   0  0  0  0  0  0  0  0  0  0  0  0
   29.0866   16.3599    5.6364 H   0  0  0  0  0  0  0  0  0  0  0  0
   28.8696   16.5242    8.4370 H   0  0  0  0  0  0  0  0  0  0  0  0
   27.1838   16.3493   10.2809 H   0  0  0  0  0  0  0  0  0  0  0  0
   23.2006   14.5051    8.9571 H   0  0  0  0  0  0  0  0  0  0  0  0
   21.4853   14.3509   10.7548 H   0  0  0  0  0  0  0  0  0  0  0  0
   21.8125   15.5685   12.9282 H   0  0  0  0  0  0  0  0  0  0  0  0
   27.2303   18.3339   13.6596 H   0  0  0  0  0  0  0  0  0  0  0  0
   25.1046   18.0576   15.8048 H   0  0  0  0  0  0  0  0  0  0  0  0
   26.4451   16.9168   15.4579 H   0  0  0  0  0  0  0  0  0  0  0  0
   26.9758   18.4845   17.3321 H   0  0  0  0  0  0  0  0  0  0  0  0
   28.0948   18.6666   15.9199 H   0  0  0  0  0  0  0  0  0  0  0  0
   25.9704   21.7208   14.9575 H   0  0  0  0  0  0  0  0  0  0  0  0
   24.0750   15.4416    7.4173 H   0  0  0  0  0  0  0  0  0  0  0  0
   23.4396   11.4706    3.4155 H   0  0  0  0  0  0  0  0  0  0  0  0
  1  2  1  0
  2  3  1  0
  3  4  2  0
  4  5  1  0
  5  6  1  0
  6  7  2  0
  6  8  2  0
  6  9  1  0
  9 10  1  0
 10 11  2  0
 11 12  1  0
 12 13  1  0
 13 14  2  0
 14 15  1  0
 15 16  2  0
 16 17  1  0
 17 18  2  0
 18 19  1  0
 19 20  2  0
 20 21  1  0
 21 22  2  0
 22 23  1  0
 23 24  2  0
 23 25  1  0
 25 26  1  0
 26 27  1  0
 27 28  1  0
 28 29  1  0
 29 30  2  0
 29 31  1  0
 31 32  1  0
 32 33  2  0
 25 34  1  0
 34 35  2  0
 16 36  1  0
 36 37  2  0
  5 38  1  0
 38 39  2  0
 39  3  1  0
 37 10  1  0
 37 13  1  0
 22 17  1  0
 32 26  1  0
 34 21  1  0
  1 40  1  0
  1 41  1  0
  1 42  1  0
  2 43  1  0
  2 44  1  0
  4 45  1  0
 11 46  1  0
 12 47  1  0
 14 48  1  0
 15 49  1  0
 18 50  1  0
 19 51  1  0
 20 52  1  0
 26 53  1  6
 27 54  1  0
 27 55  1  0
 28 56  1  0
 28 57  1  0
 31 58  1  0
 36 59  1  0
 38 60  1  0
M  END
>  <meeko>  (484) 
{"is_sidechain": [true], "free_energy": -12.38, "intermolecular_energy": 0.0, "internal_energy": -12.38, "cluster_size": 4, "cluster_id": 2, "rank_in_cluster": 1}

>  <_RMSD_MCS_to_ref>  (484) 
0.8467815538850612

$$$$
ligand
     RDKit          3D

 61 66  0  0  0  0  0  0  0  0999 V2000
   24.8710    9.6170    7.7820 C   0  0  0  0  0  0  0  0  0  0  0  0
   25.4240   10.9640    7.3490 C   0  0  0  0  0  0  0  0  0  0  0  0
   26.9080   11.0190    7.4390 C   0  0  0  0  0  0  0  0  0  0  0  0
   27.7210   12.0950    7.7400 C   0  0  0  0  0  0  0  0  0  0  0  0
   28.9810   11.5680    7.7480 N   0  0  0  0  0  0  0  0  0  0  0  0
   30.4150   12.4120    8.0210 S   0  0  0  0  0  6  0  0  0  0  0  0
   30.3590   12.8340    9.4110 O   0  0  0  0  0  0  0  0  0  0  0  0
   31.4430   11.4880    7.5740 O   0  0  0  0  0  0  0  0  0  0  0  0
   30.4880   13.7310    7.0680 O   0  0  0  0  0  0  0  0  0  0  0  0
   29.3170   14.3540    6.7300 C   0  0  0  0  0  0  0  0  0  0  0  0
   28.9490   14.3960    5.4050 C   0  0  0  0  0  0  0  0  0  0  0  0
   27.7420   14.9730    5.0640 C   0  0  0  0  0  0  0  0  0  0  0  0
   27.4210   15.0320    3.7600 N   0  0  0  0  0  0  0  0  0  0  0  0
   26.2500   15.6090    3.4110 C   0  0  0  0  0  0  0  0  0  0  0  0
   25.3600   16.1450    4.3190 C   0  0  0  0  0  0  0  0  0  0  0  0
   25.6900   16.0750    5.6680 C   0  0  0  0  0  0  0  0  0  0  0  0
   26.9010   15.4700    6.0770 C   0  0  0  0  0  0  0  0  0  0  0  0
   27.3400   15.3340    7.4100 C   0  0  0  0  0  0  0  0  0  0  0  0
   26.5540   15.7070    8.5990 C   0  0  0  0  0  0  0  0  0  0  0  0
   25.2920   15.1120    8.8620 C   0  0  0  0  0  0  0  0  0  0  0  0
   24.5770   15.4000   10.0290 C   0  0  0  0  0  0  0  0  0  0  0  0
   25.1570   16.2690   10.9300 C   0  0  0  0  0  0  0  0  0  0  0  0
   26.3930   16.8660   10.7080 C   0  0  0  0  0  0  0  0  0  0  0  0
   27.0940   16.6030    9.5440 C   0  0  0  0  0  0  0  0  0  0  0  0
   26.7610   17.7330   11.8630 C   0  0  0  0  0  0  0  0  0  0  0  0
   25.6650   17.5000   12.7950 N   0  0  0  0  0  0  0  0  0  0  0  0
   25.5070   18.3140   13.9940 C   0  0  2  0  0  0  0  0  0  0  0  0
   26.2360   19.6560   13.9250 C   0  0  0  0  0  0  0  0  0  0  0  0
   25.9570   20.4450   15.1950 C   0  0  0  0  0  0  0  0  0  0  0  0
   26.3600   19.6650   16.4230 C   0  0  0  0  0  0  0  0  0  0  0  0
   26.6350   20.2150   17.4870 O   0  0  0  0  0  0  0  0  0  0  0  0
   26.3260   18.2970   16.3240 N   0  0  0  0  0  0  0  0  0  0  0  0
   25.9260   17.5350   15.2500 C   0  0  0  0  0  0  0  0  0  0  0  0
   25.8240   16.3140   15.3600 O   0  0  0  0  0  0  0  0  0  0  0  0
   24.6650   16.7180   12.2370 C   0  0  0  0  0  0  0  0  0  0  0  0
   23.5720   16.4430   12.6940 O   0  0  0  0  0  0  0  0  0  0  0  0
   28.5460   14.7970    7.7300 N   0  0  0  0  0  0  0  0  0  0  0  0
   28.9210   10.2660    7.3680 C   0  0  0  0  0  0  0  0  0  0  0  0
   27.6690    9.8860    7.2030 N   0  0  0  0  0  0  0  0  0  0  0  0
   24.8498    9.5653    8.8806 H   0  0  0  0  0  0  0  0  0  0  0  0
   23.8505    9.4962    7.3895 H   0  0  0  0  0  0  0  0  0  0  0  0
   25.5122    8.8140    7.3895 H   0  0  0  0  0  0  0  0  0  0  0  0
   25.1254   11.1508    6.3069 H   0  0  0  0  0  0  0  0  0  0  0  0
   25.0166   11.7291    8.0262 H   0  0  0  0  0  0  0  0  0  0  0  0
   27.4221   13.1365    7.9296 H   0  0  0  0  0  0  0  0  0  0  0  0
   29.6063   13.9763    4.6293 H   0  0  0  0  0  0  0  0  0  0  0  0
   25.9917   15.6539    2.3427 H   0  0  0  0  0  0  0  0  0  0  0  0
   24.4210   16.6120    3.9869 H   0  0  0  0  0  0  0  0  0  0  0  0
   25.0054   16.4925    6.4210 H   0  0  0  0  0  0  0  0  0  0  0  0
   24.8669   14.4084    8.1311 H   0  0  0  0  0  0  0  0  0  0  0  0
   23.5911   14.9514   10.2209 H   0  0  0  0  0  0  0  0  0  0  0  0
   28.0634   17.0885    9.3580 H   0  0  0  0  0  0  0  0  0  0  0  0
   27.7242   17.4279   12.2979 H   0  0  0  0  0  0  0  0  0  0  0  0
   26.8891   18.7916   11.5930 H   0  0  0  0  0  0  0  0  0  0  0  0
   24.4341   18.5486   14.0565 H   0  0  0  0  0  0  0  0  0  0  0  0
   27.3181   19.4820   13.8306 H   0  0  0  0  0  0  0  0  0  0  0  0
   25.8808   20.2241   13.0526 H   0  0  0  0  0  0  0  0  0  0  0  0
   26.5261   21.3859   15.1650 H   0  0  0  0  0  0  0  0  0  0  0  0
   24.8769   20.6460   15.2495 H   0  0  0  0  0  0  0  0  0  0  0  0
   26.6383   17.7761   17.1559 H   0  0  0  0  0  0  0  0  0  0  0  0
   29.7965    9.6171    7.2183 H   0  0  0  0  0  0  0  0  0  0  0  0
  1  2  1  0
  2  3  1  0
  3  4  2  0
  4  5  1  0
  5  6  1  0
  6  7  2  0
  6  8  2  0
  6  9  1  0
  9 10  1  0
 10 11  2  0
 11 12  1  0
 12 13  2  0
 13 14  1  0
 14 15  2  0
 15 16  1  0
 16 17  2  0
 17 18  1  0
 18 19  1  0
 19 20  2  0
 20 21  1  0
 21 22  2  0
 22 23  1  0
 23 24  2  0
 23 25  1  0
 25 26  1  0
 26 27  1  0
 27 28  1  0
 28 29  1  0
 29 30  1  0
 30 31  2  0
 30 32  1  0
 32 33  1  0
 33 34  2  0
 26 35  1  0
 35 36  2  0
 18 37  2  0
  5 38  1  0
 38 39  2  0
 39  3  1  0
 37 10  1  0
 17 12  1  0
 24 19  1  0
 33 27  1  0
 35 22  1  0
  1 40  1  0
  1 41  1  0
  1 42  1  0
  2 43  1  0
  2 44  1  0
  4 45  1  0
 11 46  1  0
 14 47  1  0
 15 48  1  0
 16 49  1  0
 20 50  1  0
 21 51  1  0
 24 52  1  0
 25 53  1  0
 25 54  1  0
 27 55  1  1
 28 56  1  0
 28 57  1  0
 29 58  1  0
 29 59  1  0
 32 60  1  0
 38 61  1  0
M  END
>  <meeko>  (485) 
{"is_sidechain": [true], "free_energy": -12.38, "intermolecular_energy": 0.0, "internal_energy": -12.38, "cluster_size": 20, "cluster_id": 1, "rank_in_cluster": 1}

>  <_RMSD_MCS_to_ref>  (485) 
1.8718429843057716

$$$$
ligand
     RDKit          3D

 61 66  0  0  0  0  0  0  0  0999 V2000
   24.8540    9.4010    7.6050 C   0  0  0  0  0  0  0  0  0  0  0  0
   25.5230   10.7560    7.4270 C   0  0  0  0  0  0  0  0  0  0  0  0
   25.2160   11.3620    6.1030 C   0  0  0  0  0  0  0  0  0  0  0  0
   24.4020   12.4400    5.8160 C   0  0  0  0  0  0  0  0  0  0  0  0
   24.5220   12.6010    4.4700 N   0  0  0  0  0  0  0  0  0  0  0  0
   23.9050   13.8560    3.5310 S   0  0  0  0  0  6  0  0  0  0  0  0
   24.1510   13.4180    2.1690 O   0  0  0  0  0  0  0  0  0  0  0  0
   22.5510   14.0990    3.9990 O   0  0  0  0  0  0  0  0  0  0  0  0
   24.8250   15.1840    3.7920 O   0  0  0  0  0  0  0  0  0  0  0  0
   25.2920   15.5740    4.9770 C   0  0  0  0  0  0  0  0  0  0  0  0
   24.8270   15.5280    6.2740 C   0  0  0  0  0  0  0  0  0  0  0  0
   25.7970   16.1420    7.1310 C   0  0  0  0  0  0  0  0  0  0  0  0
   25.8770   16.4080    8.5240 C   0  0  0  0  0  0  0  0  0  0  0  0
   24.7770   16.0280    9.4140 C   0  0  0  0  0  0  0  0  0  0  0  0
   23.6740   15.2950    8.9330 C   0  0  0  0  0  0  0  0  0  0  0  0
   22.5820   14.9660    9.7610 C   0  0  0  0  0  0  0  0  0  0  0  0
   22.5580   15.3700   11.0940 C   0  0  0  0  0  0  0  0  0  0  0  0
   23.6520   16.0730   11.5600 C   0  0  0  0  0  0  0  0  0  0  0  0
   24.7490   16.3860   10.7580 C   0  0  0  0  0  0  0  0  0  0  0  0
   25.7560   17.1360   11.5630 C   0  0  0  0  0  0  0  0  0  0  0  0
   25.0910   17.3280   12.8470 N   0  0  0  0  0  0  0  0  0  0  0  0
   25.3160   18.5370   13.6410 C   0  0  1  0  0  0  0  0  0  0  0  0
   25.2110   18.2630   15.1380 C   0  0  0  0  0  0  0  0  0  0  0  0
   25.5450   19.5270   15.9130 C   0  0  0  0  0  0  0  0  0  0  0  0
   26.9400   19.9990   15.5780 C   0  0  0  0  0  0  0  0  0  0  0  0
   27.6740   20.5160   16.4150 O   0  0  0  0  0  0  0  0  0  0  0  0
   27.3300   19.8490   14.2720 N   0  0  0  0  0  0  0  0  0  0  0  0
   26.7050   19.1150   13.2930 C   0  0  0  0  0  0  0  0  0  0  0  0
   27.2510   18.9500   12.2020 O   0  0  0  0  0  0  0  0  0  0  0  0
   23.8430   16.7100   12.8680 C   0  0  0  0  0  0  0  0  0  0  0  0
   23.0130   16.7390   13.7570 O   0  0  0  0  0  0  0  0  0  0  0  0
   27.0360   17.0380    9.0170 C   0  0  0  0  0  0  0  0  0  0  0  0
   28.0770   17.4060    8.1680 C   0  0  0  0  0  0  0  0  0  0  0  0
   28.0060   17.1610    6.7950 C   0  0  0  0  0  0  0  0  0  0  0  0
   26.8550   16.5290    6.3090 C   0  0  0  0  0  0  0  0  0  0  0  0
   26.5260   16.1730    5.0220 N   0  0  0  0  0  0  0  0  0  0  0  0
   25.3350   11.6340    3.9730 C   0  0  0  0  0  0  0  0  0  0  0  0
   25.7830   10.8650    4.9440 N   0  0  0  0  0  0  0  0  0  0  0  0
   24.7465    9.1833    8.6779 H   0  0  0  0  0  0  0  0  0  0  0  0
   23.8606    9.4177    7.1329 H   0  0  0  0  0  0  0  0  0  0  0  0
   25.4713    8.6225    7.1329 H   0  0  0  0  0  0  0  0  0  0  0  0
   25.1684   11.4333    8.2179 H   0  0  0  0  0  0  0  0  0  0  0  0
   26.6112   10.6071    7.4874 H   0  0  0  0  0  0  0  0  0  0  0  0
   23.7950   13.0332    6.5158 H   0  0  0  0  0  0  0  0  0  0  0  0
   23.8701   15.0922    6.5972 H   0  0  0  0  0  0  0  0  0  0  0  0
   23.6649   14.9705    7.8820 H   0  0  0  0  0  0  0  0  0  0  0  0
   21.7421   14.3857    9.3515 H   0  0  0  0  0  0  0  0  0  0  0  0
   21.7041   15.1390   11.7478 H   0  0  0  0  0  0  0  0  0  0  0  0
   26.6794   16.5502   11.6822 H   0  0  0  0  0  0  0  0  0  0  0  0
   26.0614   18.0825   11.0929 H   0  0  0  0  0  0  0  0  0  0  0  0
   24.5321   19.2680   13.3937 H   0  0  0  0  0  0  0  0  0  0  0  0
   24.1864   17.9448   15.3808 H   0  0  0  0  0  0  0  0  0  0  0  0
   25.9191   17.4677   15.4141 H   0  0  0  0  0  0  0  0  0  0  0  0
   24.8234   20.3144   15.6499 H   0  0  0  0  0  0  0  0  0  0  0  0
   25.4919   19.3089   16.9898 H   0  0  0  0  0  0  0  0  0  0  0  0
   28.1897   20.3430   13.9930 H   0  0  0  0  0  0  0  0  0  0  0  0
   27.1208   17.2436   10.0943 H   0  0  0  0  0  0  0  0  0  0  0  0
   28.9685   17.8970    8.5853 H   0  0  0  0  0  0  0  0  0  0  0  0
   28.8240   17.4537    6.1203 H   0  0  0  0  0  0  0  0  0  0  0  0
   27.1262   16.3345    4.2007 H   0  0  0  0  0  0  0  0  0  0  0  0
   25.5845   11.5101    2.9089 H   0  0  0  0  0  0  0  0  0  0  0  0
  1  2  1  0
  2  3  1  0
  3  4  2  0
  4  5  1  0
  5  6  1  0
  6  7  2  0
  6  8  2  0
  6  9  1  0
  9 10  1  0
 10 11  2  0
 11 12  1  0
 12 13  2  0
 13 14  1  0
 14 15  2  0
 15 16  1  0
 16 17  2  0
 17 18  1  0
 18 19  2  0
 19 20  1  0
 20 21  1  0
 21 22  1  0
 22 23  1  0
 23 24  1  0
 24 25  1  0
 25 26  2  0
 25 27  1  0
 27 28  1  0
 28 29  2  0
 21 30  1  0
 30 31  2  0
 13 32  1  0
 32 33  2  0
 33 34  1  0
 34 35  2  0
 35 36  1  0
  5 37  1  0
 37 38  2  0
 38  3  1  0
 36 10  1  0
 35 12  1  0
 19 14  1  0
 28 22  1  0
 30 18  1  0
  1 39  1  0
  1 40  1  0
  1 41  1  0
  2 42  1  0
  2 43  1  0
  4 44  1  0
 11 45  1  0
 15 46  1  0
 16 47  1  0
 17 48  1  0
 20 49  1  0
 20 50  1  0
 22 51  1  6
 23 52  1  0
 23 53  1  0
 24 54  1  0
 24 55  1  0
 27 56  1  0
 32 57  1  0
 33 58  1  0
 34 59  1  0
 36 60  1  0
 37 61  1  0
M  END
>  <meeko>  (486) 
{"is_sidechain": [true], "free_energy": -12.37, "intermolecular_energy": 0.0, "internal_energy": -12.37, "cluster_size": 3, "cluster_id": 1, "rank_in_cluster": 1}

>  <_RMSD_MCS_to_ref>  (486) 
1.725614898457294

$$$$
ligand
     RDKit          3D

 57 61  0  0  0  0  0  0  0  0999 V2000
   24.8710    9.6160    7.7820 C   0  0  0  0  0  0  0  0  0  0  0  0
   25.4240   10.9650    7.3490 C   0  0  0  0  0  0  0  0  0  0  0  0
   26.8080   11.1860    7.8500 C   0  0  0  0  0  0  0  0  0  0  0  0
   27.2400   12.0250    8.8590 C   0  0  0  0  0  0  0  0  0  0  0  0
   28.5920   11.8370    8.8950 N   0  0  0  0  0  0  0  0  0  0  0  0
   29.6940   12.8290    9.7000 S   0  0  0  0  0  6  0  0  0  0  0  0
   30.9940   12.2700    9.3810 O   0  0  0  0  0  0  0  0  0  0  0  0
   29.2070   12.8990   11.0640 O   0  0  0  0  0  0  0  0  0  0  0  0
   29.5350   14.2970    9.0090 O   0  0  0  0  0  0  0  0  0  0  0  0
   29.1490   14.4650    7.6970 C   0  0  0  0  0  0  0  0  0  0  0  0
   29.9130   14.1560    6.6370 C   0  0  0  0  0  0  0  0  0  0  0  0
   29.4050   14.4330    5.2730 C   0  0  0  0  0  0  0  0  0  0  0  0
   30.0660   14.1580    4.2800 O   0  0  0  0  0  0  0  0  0  0  0  0
   28.1650   15.0180    5.2000 N   0  0  0  0  0  0  0  0  0  0  0  0
   27.3970   15.3390    6.2920 C   0  0  0  0  0  0  0  0  0  0  0  0
   27.8380   15.0880    7.5370 C   0  0  0  0  0  0  0  0  0  0  0  0
   26.9640   15.4280    8.6760 C   0  0  0  0  0  0  0  0  0  0  0  0
   25.8400   14.6180    8.9590 C   0  0  0  0  0  0  0  0  0  0  0  0
   25.0340   14.8570   10.0800 C   0  0  0  0  0  0  0  0  0  0  0  0
   25.3600   15.9230   10.8980 C   0  0  0  0  0  0  0  0  0  0  0  0
   26.4610   16.7240   10.6010 C   0  0  0  0  0  0  0  0  0  0  0  0
   27.2810   16.5050    9.5110 C   0  0  0  0  0  0  0  0  0  0  0  0
   26.5590   17.7630   11.6320 C   0  0  0  0  0  0  0  0  0  0  0  0
   27.4410   18.5970   11.7000 O   0  0  0  0  0  0  0  0  0  0  0  0
   25.4720   17.5940   12.4760 N   0  0  0  0  0  0  0  0  0  0  0  0
   25.3730   18.2930   13.7530 C   0  0  1  0  0  0  0  0  0  0  0  0
   26.3250   17.7280   14.8030 C   0  0  0  0  0  0  0  0  0  0  0  0
   26.1000   18.4450   16.1260 C   0  0  0  0  0  0  0  0  0  0  0  0
   26.2550   19.9390   15.9710 C   0  0  0  0  0  0  0  0  0  0  0  0
   26.7360   20.6450   16.8520 O   0  0  0  0  0  0  0  0  0  0  0  0
   25.8120   20.4820   14.7920 N   0  0  0  0  0  0  0  0  0  0  0  0
   25.6230   19.8040   13.6100 C   0  0  0  0  0  0  0  0  0  0  0  0
   25.6640   20.4040   12.5380 O   0  0  0  0  0  0  0  0  0  0  0  0
   24.7080   16.3940   12.1560 C   0  0  0  0  0  0  0  0  0  0  0  0
   28.9450   10.9700    7.9100 C   0  0  0  0  0  0  0  0  0  0  0  0
   27.8800   10.5360    7.2700 N   0  0  0  0  0  0  0  0  0  0  0  0
   24.8497    9.5640    8.8806 H   0  0  0  0  0  0  0  0  0  0  0  0
   23.8507    9.4948    7.3893 H   0  0  0  0  0  0  0  0  0  0  0  0
   25.5127    8.8135    7.3893 H   0  0  0  0  0  0  0  0  0  0  0  0
   25.4327   11.0093    6.2499 H   0  0  0  0  0  0  0  0  0  0  0  0
   24.7794   11.7489    7.7732 H   0  0  0  0  0  0  0  0  0  0  0  0
   26.6335   12.6920    9.4893 H   0  0  0  0  0  0  0  0  0  0  0  0
   30.9049   13.7023    6.7796 H   0  0  0  0  0  0  0  0  0  0  0  0
   27.7865   15.2297    4.2658 H   0  0  0  0  0  0  0  0  0  0  0  0
   26.4117   15.8059    6.1468 H   0  0  0  0  0  0  0  0  0  0  0  0
   25.5935   13.7837    8.2858 H   0  0  0  0  0  0  0  0  0  0  0  0
   24.1682   14.2160   10.3025 H   0  0  0  0  0  0  0  0  0  0  0  0
   28.1478   17.1510    9.3078 H   0  0  0  0  0  0  0  0  0  0  0  0
   24.3389   18.1321   14.0919 H   0  0  0  0  0  0  0  0  0  0  0  0
   26.1337   16.6524   14.9312 H   0  0  0  0  0  0  0  0  0  0  0  0
   27.3644   17.8778   14.4756 H   0  0  0  0  0  0  0  0  0  0  0  0
   25.0837   18.2251   16.4849 H   0  0  0  0  0  0  0  0  0  0  0  0
   26.8513   18.0899   16.8467 H   0  0  0  0  0  0  0  0  0  0  0  0
   25.6014   21.4902   14.7915 H   0  0  0  0  0  0  0  0  0  0  0  0
   24.7950   15.6424   12.9545 H   0  0  0  0  0  0  0  0  0  0  0  0
   23.6285   16.5764   12.0492 H   0  0  0  0  0  0  0  0  0  0  0  0
   29.9784   10.6720    7.6793 H   0  0  0  0  0  0  0  0  0  0  0  0
  1  2  1  0
  2  3  1  0
  3  4  2  0
  4  5  1  0
  5  6  1  0
  6  7  2  0
  6  8  2  0
  6  9  1  0
  9 10  1  0
 10 11  2  0
 11 12  1  0
 12 13  2  0
 12 14  1  0
 14 15  1  0
 15 16  2  0
 16 17  1  0
 17 18  2  0
 18 19  1  0
 19 20  2  0
 20 21  1  0
 21 22  2  0
 21 23  1  0
 23 24  2  0
 23 25  1  0
 25 26  1  0
 26 27  1  0
 27 28  1  0
 28 29  1  0
 29 30  2  0
 29 31  1  0
 31 32  1  0
 32 33  2  0
 25 34  1  0
  5 35  1  0
 35 36  2  0
 36  3  1  0
 16 10  1  0
 22 17  1  0
 32 26  1  0
 34 20  1  0
  1 37  1  0
  1 38  1  0
  1 39  1  0
  2 40  1  0
  2 41  1  0
  4 42  1  0
 11 43  1  0
 14 44  1  0
 15 45  1  0
 18 46  1  0
 19 47  1  0
 22 48  1  0
 26 49  1  1
 27 50  1  0
 27 51  1  0
 28 52  1  0
 28 53  1  0
 31 54  1  0
 34 55  1  0
 34 56  1  0
 35 57  1  0
M  END
>  <meeko>  (487) 
{"is_sidechain": [true], "free_energy": -12.37, "intermolecular_energy": 0.0, "internal_energy": -12.37, "cluster_size": 7, "cluster_id": 1, "rank_in_cluster": 1}

>  <_RMSD_MCS_to_ref>  (487) 
1.3368894244975285

$$$$
ligand
     RDKit          3D

 48 51  0  0  0  0  0  0  0  0999 V2000
   24.8710    9.6160    7.7820 C   0  0  0  0  0  0  0  0  0  0  0  0
   25.4240   10.9650    7.3490 C   0  0  0  0  0  0  0  0  0  0  0  0
   26.4700   11.4770    8.2770 C   0  0  0  0  0  0  0  0  0  0  0  0
   27.2850   12.5820    8.1300 C   0  0  0  0  0  0  0  0  0  0  0  0
   28.0360   12.5960    9.2690 N   0  0  0  0  0  0  0  0  0  0  0  0
   29.2540   13.6950    9.6370 S   0  0  0  0  0  6  0  0  0  0  0  0
   29.7520   13.2370   10.9210 O   0  0  0  0  0  0  0  0  0  0  0  0
   30.1240   13.7270    8.4740 O   0  0  0  0  0  0  0  0  0  0  0  0
   28.5840   15.1580    9.8580 O   0  0  0  0  0  0  0  0  0  0  0  0
   27.2730   15.3180   10.0820 C   0  0  0  0  0  0  0  0  0  0  0  0
   26.3590   15.0380    9.1000 C   0  0  0  0  0  0  0  0  0  0  0  0
   25.1410   15.2990    9.6510 N   0  0  0  0  0  0  0  0  0  0  0  0
   23.9560   15.1250    9.0110 N   0  0  0  0  0  0  0  0  0  0  0  0
   22.9380   15.4420    9.7420 C   0  0  0  0  0  0  0  0  0  0  0  0
   22.9920   15.9530   11.1250 C   0  0  0  0  0  0  0  0  0  0  0  0
   24.2020   16.1010   11.6910 C   0  0  0  0  0  0  0  0  0  0  0  0
   24.2090   16.6490   13.0800 C   0  0  0  0  0  0  0  0  0  0  0  0
   23.2020   16.5960   13.7850 O   0  0  0  0  0  0  0  0  0  0  0  0
   25.3790   17.2210   13.5130 N   0  0  0  0  0  0  0  0  0  0  0  0
   25.3720   18.1220   14.6600 C   0  0  1  0  0  0  0  0  0  0  0  0
   26.2780   17.6170   15.7740 C   0  0  0  0  0  0  0  0  0  0  0  0
   26.2980   18.6180   16.9170 C   0  0  0  0  0  0  0  0  0  0  0  0
   26.7010   19.9950   16.4420 C   0  0  0  0  0  0  0  0  0  0  0  0
   27.2970   20.7900   17.1640 O   0  0  0  0  0  0  0  0  0  0  0  0
   26.3060   20.3490   15.1770 N   0  0  0  0  0  0  0  0  0  0  0  0
   25.7950   19.5260   14.2020 C   0  0  0  0  0  0  0  0  0  0  0  0
   25.6400   19.9390   13.0530 O   0  0  0  0  0  0  0  0  0  0  0  0
   25.3620   15.7560   10.9440 C   0  0  0  0  0  0  0  0  0  0  0  0
   26.6590   15.7780   11.2210 N   0  0  0  0  0  0  0  0  0  0  0  0
   27.6790   11.5510   10.0560 C   0  0  0  0  0  0  0  0  0  0  0  0
   26.7430   10.8310    9.4720 N   0  0  0  0  0  0  0  0  0  0  0  0
   24.8497    9.5640    8.8806 H   0  0  0  0  0  0  0  0  0  0  0  0
   23.8507    9.4948    7.3893 H   0  0  0  0  0  0  0  0  0  0  0  0
   25.5127    8.8135    7.3893 H   0  0  0  0  0  0  0  0  0  0  0  0
   25.8629   10.8608    6.3458 H   0  0  0  0  0  0  0  0  0  0  0  0
   24.5919   11.6844    7.3537 H   0  0  0  0  0  0  0  0  0  0  0  0
   27.3206   13.2888    7.2878 H   0  0  0  0  0  0  0  0  0  0  0  0
   26.5655   14.6782    8.0812 H   0  0  0  0  0  0  0  0  0  0  0  0
   21.9416   15.3197    9.2923 H   0  0  0  0  0  0  0  0  0  0  0  0
   22.0728   16.2044   11.6744 H   0  0  0  0  0  0  0  0  0  0  0  0
   26.2633   17.0137   13.0273 H   0  0  0  0  0  0  0  0  0  0  0  0
   24.3524   18.1634   15.0707 H   0  0  0  0  0  0  0  0  0  0  0  0
   25.9009   16.6512   16.1414 H   0  0  0  0  0  0  0  0  0  0  0  0
   27.2986   17.4928   15.3830 H   0  0  0  0  0  0  0  0  0  0  0  0
   25.2931   18.6732   17.3611 H   0  0  0  0  0  0  0  0  0  0  0  0
   27.0365   18.2795   17.6586 H   0  0  0  0  0  0  0  0  0  0  0  0
   26.4034   21.3442   14.9298 H   0  0  0  0  0  0  0  0  0  0  0  0
   28.1108   11.3346   11.0443 H   0  0  0  0  0  0  0  0  0  0  0  0
  1  2  1  0
  2  3  1  0
  3  4  2  0
  4  5  1  0
  5  6  1  0
  6  7  2  0
  6  8  2  0
  6  9  1  0
  9 10  1  0
 10 11  2  0
 11 12  1  0
 12 13  1  0
 13 14  2  0
 14 15  1  0
 15 16  2  0
 16 17  1  0
 17 18  2  0
 17 19  1  0
 19 20  1  0
 20 21  1  0
 21 22  1  0
 22 23  1  0
 23 24  2  0
 23 25  1  0
 25 26  1  0
 26 27  2  0
 16 28  1  0
 28 29  2  0
  5 30  1  0
 30 31  2  0
 31  3  1  0
 29 10  1  0
 28 12  1  0
 26 20  1  0
  1 32  1  0
  1 33  1  0
  1 34  1  0
  2 35  1  0
  2 36  1  0
  4 37  1  0
 11 38  1  0
 14 39  1  0
 15 40  1  0
 19 41  1  0
 20 42  1  1
 21 43  1  0
 21 44  1  0
 22 45  1  0
 22 46  1  0
 25 47  1  0
 30 48  1  0
M  END
>  <meeko>  (488) 
{"is_sidechain": [true], "free_energy": -12.37, "intermolecular_energy": 0.0, "internal_energy": -12.37, "cluster_size": 15, "cluster_id": 1, "rank_in_cluster": 1}

>  <_RMSD_MCS_to_ref>  (488) 
0.6609091381490266

$$$$
ligand
     RDKit          3D

 60 64  0  0  0  0  0  0  0  0999 V2000
   24.8540    9.4020    7.6050 C   0  0  0  0  0  0  0  0  0  0  0  0
   25.5230   10.7550    7.4270 C   0  0  0  0  0  0  0  0  0  0  0  0
   25.2840   11.3270    6.0740 C   0  0  0  0  0  0  0  0  0  0  0  0
   25.9560   12.3500    5.4350 C   0  0  0  0  0  0  0  0  0  0  0  0
   25.3340   12.4540    4.2240 N   0  0  0  0  0  0  0  0  0  0  0  0
   25.5840   13.6570    3.0770 S   0  0  0  0  0  6  0  0  0  0  0  0
   24.5800   13.4190    2.0560 O   0  0  0  0  0  0  0  0  0  0  0  0
   27.0030   13.6520    2.7830 O   0  0  0  0  0  0  0  0  0  0  0  0
   25.1880   15.1610    3.9240 C   0  0  0  0  0  0  0  0  0  0  0  0
   24.9490   16.3250    3.1910 C   0  0  0  0  0  0  0  0  0  0  0  0
   24.6360   17.5010    3.8670 C   0  0  0  0  0  0  0  0  0  0  0  0
   24.5660   17.5060    5.2640 C   0  0  0  0  0  0  0  0  0  0  0  0
   24.8130   16.3410    6.0030 C   0  0  0  0  0  0  0  0  0  0  0  0
   24.7140   16.4350    7.4080 N   0  0  0  0  0  0  0  0  0  0  0  0
   24.1430   15.5160    8.2700 C   0  0  0  0  0  0  0  0  0  0  0  0
   23.6570   14.4330    7.9690 O   0  0  0  0  0  0  0  0  0  0  0  0
   24.1580   15.9010    9.7100 C   0  0  0  0  0  0  0  0  0  0  0  0
   23.0980   15.4490   10.5320 C   0  0  0  0  0  0  0  0  0  0  0  0
   23.0460   15.7710   11.8940 C   0  0  0  0  0  0  0  0  0  0  0  0
   24.0580   16.5560   12.4140 C   0  0  0  0  0  0  0  0  0  0  0  0
   25.0880   17.0090   11.5900 C   0  0  0  0  0  0  0  0  0  0  0  0
   25.1690   16.7070   10.2430 C   0  0  0  0  0  0  0  0  0  0  0  0
   26.0050   17.8120   12.4050 C   0  0  0  0  0  0  0  0  0  0  0  0
   27.0520   18.2740   11.9980 O   0  0  0  0  0  0  0  0  0  0  0  0
   25.4530   17.8890   13.6740 N   0  0  0  0  0  0  0  0  0  0  0  0
   26.1600   18.3940   14.8470 C   0  0  2  0  0  0  0  0  0  0  0  0
   25.3260   18.3680   16.1260 C   0  0  0  0  0  0  0  0  0  0  0  0
   26.1740   18.8560   17.2900 C   0  0  0  0  0  0  0  0  0  0  0  0
   26.7280   20.2360   17.0250 C   0  0  0  0  0  0  0  0  0  0  0  0
   27.0590   20.9950   17.9310 O   0  0  0  0  0  0  0  0  0  0  0  0
   26.9250   20.5790   15.7100 N   0  0  0  0  0  0  0  0  0  0  0  0
   26.7120   19.8050   14.5920 C   0  0  0  0  0  0  0  0  0  0  0  0
   27.0490   20.2130   13.4810 O   0  0  0  0  0  0  0  0  0  0  0  0
   24.2770   17.0380   13.8100 C   0  0  0  0  0  0  0  0  0  0  0  0
   25.1350   15.1660    5.3230 C   0  0  0  0  0  0  0  0  0  0  0  0
   24.3140   11.5580    4.1690 C   0  0  0  0  0  0  0  0  0  0  0  0
   24.2630   10.8460    5.2760 N   0  0  0  0  0  0  0  0  0  0  0  0
   24.7464    9.1845    8.6779 H   0  0  0  0  0  0  0  0  0  0  0  0
   23.8606    9.4192    7.1330 H   0  0  0  0  0  0  0  0  0  0  0  0
   25.4708    8.6230    7.1330 H   0  0  0  0  0  0  0  0  0  0  0  0
   25.1236   11.4495    8.1808 H   0  0  0  0  0  0  0  0  0  0  0  0
   26.6073   10.6139    7.5471 H   0  0  0  0  0  0  0  0  0  0  0  0
   26.7996   12.9451    5.8147 H   0  0  0  0  0  0  0  0  0  0  0  0
   25.0073   16.3130    2.0926 H   0  0  0  0  0  0  0  0  0  0  0  0
   24.4439   18.4256    3.3030 H   0  0  0  0  0  0  0  0  0  0  0  0
   24.3133   18.4382    5.7905 H   0  0  0  0  0  0  0  0  0  0  0  0
   25.1110   17.2819    7.8393 H   0  0  0  0  0  0  0  0  0  0  0  0
   22.2997   14.8329   10.0925 H   0  0  0  0  0  0  0  0  0  0  0  0
   22.2247   15.4102   12.5306 H   0  0  0  0  0  0  0  0  0  0  0  0
   25.9922   17.0840    9.6184 H   0  0  0  0  0  0  0  0  0  0  0  0
   26.9979   17.7007   15.0118 H   0  0  0  0  0  0  0  0  0  0  0  0
   24.4517   19.0249   16.0078 H   0  0  0  0  0  0  0  0  0  0  0  0
   24.9865   17.3405   16.3233 H   0  0  0  0  0  0  0  0  0  0  0  0
   25.5529   18.8874   18.1973 H   0  0  0  0  0  0  0  0  0  0  0  0
   27.0177   18.1622   17.4196 H   0  0  0  0  0  0  0  0  0  0  0  0
   27.2751   21.5325   15.5394 H   0  0  0  0  0  0  0  0  0  0  0  0
   24.4717   16.1985   14.4936 H   0  0  0  0  0  0  0  0  0  0  0  0
   23.4064   17.5605   14.2332 H   0  0  0  0  0  0  0  0  0  0  0  0
   25.3470   14.2447    5.8854 H   0  0  0  0  0  0  0  0  0  0  0  0
   23.6263   11.4432    3.3182 H   0  0  0  0  0  0  0  0  0  0  0  0
  1  2  1  0
  2  3  1  0
  3  4  2  0
  4  5  1  0
  5  6  1  0
  6  7  2  0
  6  8  2  0
  6  9  1  0
  9 10  2  0
 10 11  1  0
 11 12  2  0
 12 13  1  0
 13 14  1  0
 14 15  1  0
 15 16  2  0
 15 17  1  0
 17 18  2  0
 18 19  1  0
 19 20  2  0
 20 21  1  0
 21 22  2  0
 21 23  1  0
 23 24  2  0
 23 25  1  0
 25 26  1  0
 26 27  1  0
 27 28  1  0
 28 29  1  0
 29 30  2  0
 29 31  1  0
 31 32  1  0
 32 33  2  0
 25 34  1  0
 13 35  2  0
  5 36  1  0
 36 37  2  0
 37  3  1  0
 35  9  1  0
 22 17  1  0
 32 26  1  0
 34 20  1  0
  1 38  1  0
  1 39  1  0
  1 40  1  0
  2 41  1  0
  2 42  1  0
  4 43  1  0
 10 44  1  0
 11 45  1  0
 12 46  1  0
 14 47  1  0
 18 48  1  0
 19 49  1  0
 22 50  1  0
 26 51  1  1
 27 52  1  0
 27 53  1  0
 28 54  1  0
 28 55  1  0
 31 56  1  0
 34 57  1  0
 34 58  1  0
 35 59  1  0
 36 60  1  0
M  END
>  <meeko>  (489) 
{"is_sidechain": [true], "free_energy": -12.36, "intermolecular_energy": 0.0, "internal_energy": -12.36, "cluster_size": 18, "cluster_id": 1, "rank_in_cluster": 1}

>  <_RMSD_MCS_to_ref>  (489) 
1.3493007911507342

$$$$
ligand
     RDKit          3D

 61 66  0  0  0  0  0  0  0  0999 V2000
   24.8540    9.4020    7.6050 C   0  0  0  0  0  0  0  0  0  0  0  0
   25.5230   10.7550    7.4270 C   0  0  0  0  0  0  0  0  0  0  0  0
   25.2060   11.3690    6.1080 C   0  0  0  0  0  0  0  0  0  0  0  0
   25.9950   12.1790    5.3160 C   0  0  0  0  0  0  0  0  0  0  0  0
   25.2160   12.4390    4.2240 N   0  0  0  0  0  0  0  0  0  0  0  0
   25.5650   13.5380    3.0040 S   0  0  0  0  0  6  0  0  0  0  0  0
   26.6200   12.9200    2.2260 O   0  0  0  0  0  0  0  0  0  0  0  0
   24.2800   13.8940    2.4340 O   0  0  0  0  0  0  0  0  0  0  0  0
   26.2390   15.0010    3.7560 C   0  0  0  0  0  0  0  0  0  0  0  0
   27.1170   15.8290    3.0430 C   0  0  0  0  0  0  0  0  0  0  0  0
   27.6320   16.9710    3.6480 C   0  0  0  0  0  0  0  0  0  0  0  0
   27.2780   17.2890    4.9570 C   0  0  0  0  0  0  0  0  0  0  0  0
   26.4030   16.4710    5.6900 C   0  0  0  0  0  0  0  0  0  0  0  0
   26.0600   16.8080    7.0080 C   0  0  0  0  0  0  0  0  0  0  0  0
   25.1930   15.9960    7.7350 C   0  0  0  0  0  0  0  0  0  0  0  0
   24.7880   16.2870    9.1270 C   0  0  0  0  0  0  0  0  0  0  0  0
   23.6230   15.7130    9.7030 C   0  0  0  0  0  0  0  0  0  0  0  0
   23.2390   15.9830   11.0220 C   0  0  0  0  0  0  0  0  0  0  0  0
   24.0330   16.8440   11.7510 C   0  0  0  0  0  0  0  0  0  0  0  0
   25.1760   17.4320   11.2250 C   0  0  0  0  0  0  0  0  0  0  0  0
   25.5620   17.1650    9.9200 C   0  0  0  0  0  0  0  0  0  0  0  0
   25.8260   18.2930   12.2530 C   0  0  0  0  0  0  0  0  0  0  0  0
   24.8890   18.2230   13.3670 N   0  0  0  0  0  0  0  0  0  0  0  0
   25.2320   18.7570   14.6790 C   0  0  1  0  0  0  0  0  0  0  0  0
   26.3490   17.9860   15.3840 C   0  0  0  0  0  0  0  0  0  0  0  0
   26.5830   18.5850   16.7610 C   0  0  0  0  0  0  0  0  0  0  0  0
   26.9080   20.0590   16.6700 C   0  0  0  0  0  0  0  0  0  0  0  0
   27.5290   20.6470   17.5510 O   0  0  0  0  0  0  0  0  0  0  0  0
   26.4020   20.7350   15.5890 N   0  0  0  0  0  0  0  0  0  0  0  0
   25.5780   20.2520   14.5980 C   0  0  0  0  0  0  0  0  0  0  0  0
   25.0800   21.0220   13.7770 O   0  0  0  0  0  0  0  0  0  0  0  0
   23.8780   17.3020   13.1350 C   0  0  0  0  0  0  0  0  0  0  0  0
   23.0220   16.9070   13.9020 O   0  0  0  0  0  0  0  0  0  0  0  0
   24.6560   14.8830    7.1890 N   0  0  0  0  0  0  0  0  0  0  0  0
   24.9960   14.5660    5.9160 C   0  0  0  0  0  0  0  0  0  0  0  0
   25.8660   15.3090    5.0970 C   0  0  0  0  0  0  0  0  0  0  0  0
   24.0130   11.8280    4.3770 C   0  0  0  0  0  0  0  0  0  0  0  0
   23.9720   11.1740    5.5190 N   0  0  0  0  0  0  0  0  0  0  0  0
   24.7464    9.1845    8.6779 H   0  0  0  0  0  0  0  0  0  0  0  0
   23.8606    9.4192    7.1330 H   0  0  0  0  0  0  0  0  0  0  0  0
   25.4708    8.6230    7.1330 H   0  0  0  0  0  0  0  0  0  0  0  0
   25.1767   11.4292    8.2242 H   0  0  0  0  0  0  0  0  0  0  0  0
   26.6113   10.6032    7.4764 H   0  0  0  0  0  0  0  0  0  0  0  0
   27.0165   12.5337    5.5178 H   0  0  0  0  0  0  0  0  0  0  0  0
   27.3976   15.5769    2.0097 H   0  0  0  0  0  0  0  0  0  0  0  0
   28.3202   17.6242    3.0914 H   0  0  0  0  0  0  0  0  0  0  0  0
   27.6904   18.1955    5.4241 H   0  0  0  0  0  0  0  0  0  0  0  0
   26.4769   17.7159    7.4683 H   0  0  0  0  0  0  0  0  0  0  0  0
   23.0045   15.0366    9.0948 H   0  0  0  0  0  0  0  0  0  0  0  0
   22.3392   15.5264   11.4600 H   0  0  0  0  0  0  0  0  0  0  0  0
   26.4659   17.6340    9.5040 H   0  0  0  0  0  0  0  0  0  0  0  0
   26.8115   17.8958   12.5378 H   0  0  0  0  0  0  0  0  0  0  0  0
   26.0166   19.3194   11.9062 H   0  0  0  0  0  0  0  0  0  0  0  0
   24.3299   18.6287   15.2953 H   0  0  0  0  0  0  0  0  0  0  0  0
   26.0578   16.9303   15.4875 H   0  0  0  0  0  0  0  0  0  0  0  0
   27.2733   18.0536   14.7915 H   0  0  0  0  0  0  0  0  0  0  0  0
   25.6746   18.4550   17.3676 H   0  0  0  0  0  0  0  0  0  0  0  0
   27.4368   18.0688   17.2241 H   0  0  0  0  0  0  0  0  0  0  0  0
   26.6719   21.7258   15.5091 H   0  0  0  0  0  0  0  0  0  0  0  0
   24.5558   13.6532    5.4881 H   0  0  0  0  0  0  0  0  0  0  0  0
   23.1891   11.8731    3.6496 H   0  0  0  0  0  0  0  0  0  0  0  0
  1  2  1  0
  2  3  1  0
  3  4  2  0
  4  5  1  0
  5  6  1  0
  6  7  2  0
  6  8  2  0
  6  9  1  0
  9 10  2  0
 10 11  1  0
 11 12  2  0
 12 13  1  0
 13 14  2  0
 14 15  1  0
 15 16  1  0
 16 17  2  0
 17 18  1  0
 18 19  2  0
 19 20  1  0
 20 21  2  0
 20 22  1  0
 22 23  1  0
 23 24  1  0
 24 25  1  0
 25 26  1  0
 26 27  1  0
 27 28  2  0
 27 29  1  0
 29 30  1  0
 30 31  2  0
 23 32  1  0
 32 33  2  0
 15 34  2  0
 34 35  1  0
 35 36  2  0
  5 37  1  0
 37 38  2  0
 38  3  1  0
 36  9  1  0
 36 13  1  0
 21 16  1  0
 30 24  1  0
 32 19  1  0
  1 39  1  0
  1 40  1  0
  1 41  1  0
  2 42  1  0
  2 43  1  0
  4 44  1  0
 10 45  1  0
 11 46  1  0
 12 47  1  0
 14 48  1  0
 17 49  1  0
 18 50  1  0
 21 51  1  0
 22 52  1  0
 22 53  1  0
 24 54  1  1
 25 55  1  0
 25 56  1  0
 26 57  1  0
 26 58  1  0
 29 59  1  0
 35 60  1  0
 37 61  1  0
M  END
>  <meeko>  (490) 
{"is_sidechain": [true], "free_energy": -12.35, "intermolecular_energy": 0.0, "internal_energy": -12.35, "cluster_size": 20, "cluster_id": 1, "rank_in_cluster": 1}

>  <_RMSD_MCS_to_ref>  (490) 
0.5065417609196249

$$$$
ligand
     RDKit          3D

 62 67  0  0  0  0  0  0  0  0999 V2000
   24.8540    9.4020    7.6050 C   0  0  0  0  0  0  0  0  0  0  0  0
   25.5230   10.7550    7.4270 C   0  0  0  0  0  0  0  0  0  0  0  0
   25.1610   11.3950    6.1330 C   0  0  0  0  0  0  0  0  0  0  0  0
   25.7060   12.5120    5.5310 C   0  0  0  0  0  0  0  0  0  0  0  0
   25.0260   12.6250    4.3520 N   0  0  0  0  0  0  0  0  0  0  0  0
   25.0980   13.9420    3.3010 S   0  0  0  0  0  6  0  0  0  0  0  0
   23.9360   13.8020    2.4440 O   0  0  0  0  0  0  0  0  0  0  0  0
   26.4470   13.9080    2.7670 O   0  0  0  0  0  0  0  0  0  0  0  0
   24.9230   15.2740    4.2360 O   0  0  0  0  0  0  0  0  0  0  0  0
   26.0650   15.9290    4.6150 C   0  0  0  0  0  0  0  0  0  0  0  0
   27.0130   16.2700    3.6600 C   0  0  0  0  0  0  0  0  0  0  0  0
   28.1690   16.9040    3.9480 N   0  0  0  0  0  0  0  0  0  0  0  0
   28.3820   17.2090    5.2490 C   0  0  0  0  0  0  0  0  0  0  0  0
   27.5020   16.9050    6.2920 C   0  0  0  0  0  0  0  0  0  0  0  0
   27.7720   17.2500    7.6260 C   0  0  0  0  0  0  0  0  0  0  0  0
   26.8600   16.9390    8.6380 C   0  0  0  0  0  0  0  0  0  0  0  0
   25.6650   16.2680    8.3470 C   0  0  0  0  0  0  0  0  0  0  0  0
   24.6900   15.9670    9.4020 C   0  0  0  0  0  0  0  0  0  0  0  0
   23.5070   15.2550    9.1210 C   0  0  0  0  0  0  0  0  0  0  0  0
   22.5510   14.9750   10.1190 C   0  0  0  0  0  0  0  0  0  0  0  0
   22.7540   15.4000   11.4300 C   0  0  0  0  0  0  0  0  0  0  0  0
   23.9200   16.0880   11.6980 C   0  0  0  0  0  0  0  0  0  0  0  0
   24.8760   16.3720   10.7220 C   0  0  0  0  0  0  0  0  0  0  0  0
   26.0050   17.1320   11.3400 C   0  0  0  0  0  0  0  0  0  0  0  0
   25.6420   17.1790   12.7500 N   0  0  0  0  0  0  0  0  0  0  0  0
   26.3360   18.0770   13.6660 C   0  0  2  0  0  0  0  0  0  0  0  0
   26.1590   17.7200   15.1410 C   0  0  0  0  0  0  0  0  0  0  0  0
   26.9810   18.6750   15.9910 C   0  0  0  0  0  0  0  0  0  0  0  0
   26.6000   20.1130   15.7260 C   0  0  0  0  0  0  0  0  0  0  0  0
   26.7890   21.0030   16.5500 O   0  0  0  0  0  0  0  0  0  0  0  0
   26.1010   20.3990   14.4800 N   0  0  0  0  0  0  0  0  0  0  0  0
   25.9360   19.5410   13.4160 C   0  0  0  0  0  0  0  0  0  0  0  0
   25.5860   19.9730   12.3190 O   0  0  0  0  0  0  0  0  0  0  0  0
   24.3780   16.6550   12.9720 C   0  0  0  0  0  0  0  0  0  0  0  0
   23.7240   16.6660   13.9960 O   0  0  0  0  0  0  0  0  0  0  0  0
   25.4170   15.9060    7.0120 C   0  0  0  0  0  0  0  0  0  0  0  0
   26.3090   16.2310    5.9670 C   0  0  0  0  0  0  0  0  0  0  0  0
   24.0630   11.6700    4.3030 C   0  0  0  0  0  0  0  0  0  0  0  0
   24.1370   10.8870    5.3600 N   0  0  0  0  0  0  0  0  0  0  0  0
   24.7464    9.1845    8.6779 H   0  0  0  0  0  0  0  0  0  0  0  0
   23.8606    9.4192    7.1330 H   0  0  0  0  0  0  0  0  0  0  0  0
   25.4708    8.6230    7.1330 H   0  0  0  0  0  0  0  0  0  0  0  0
   25.2101   11.4158    8.2489 H   0  0  0  0  0  0  0  0  0  0  0  0
   26.6116   10.5970    7.4328 H   0  0  0  0  0  0  0  0  0  0  0  0
   26.5059   13.1627    5.9140 H   0  0  0  0  0  0  0  0  0  0  0  0
   26.8108   16.0091    2.6107 H   0  0  0  0  0  0  0  0  0  0  0  0
   29.3144   17.7338    5.5043 H   0  0  0  0  0  0  0  0  0  0  0  0
   28.7089   17.7692    7.8764 H   0  0  0  0  0  0  0  0  0  0  0  0
   27.0832   17.2247    9.6765 H   0  0  0  0  0  0  0  0  0  0  0  0
   23.3240   14.9076    8.0935 H   0  0  0  0  0  0  0  0  0  0  0  0
   21.6388   14.4172    9.8606 H   0  0  0  0  0  0  0  0  0  0  0  0
   22.0154   15.1957   12.2191 H   0  0  0  0  0  0  0  0  0  0  0  0
   26.9603   16.6059   11.1959 H   0  0  0  0  0  0  0  0  0  0  0  0
   26.1472   18.1290   10.8976 H   0  0  0  0  0  0  0  0  0  0  0  0
   27.4061   17.9483   13.4464 H   0  0  0  0  0  0  0  0  0  0  0  0
   25.0971   17.8054   15.4149 H   0  0  0  0  0  0  0  0  0  0  0  0
   26.4981   16.6879   15.3136 H   0  0  0  0  0  0  0  0  0  0  0  0
   26.8080   18.4485   17.0534 H   0  0  0  0  0  0  0  0  0  0  0  0
   28.0422   18.5439   15.7328 H   0  0  0  0  0  0  0  0  0  0  0  0
   25.8147   21.3756   14.3213 H   0  0  0  0  0  0  0  0  0  0  0  0
   24.4977   15.3512    6.7733 H   0  0  0  0  0  0  0  0  0  0  0  0
   23.3246   11.5645    3.4945 H   0  0  0  0  0  0  0  0  0  0  0  0
  1  2  1  0
  2  3  1  0
  3  4  2  0
  4  5  1  0
  5  6  1  0
  6  7  2  0
  6  8  2  0
  6  9  1  0
  9 10  1  0
 10 11  2  0
 11 12  1  0
 12 13  2  0
 13 14  1  0
 14 15  2  0
 15 16  1  0
 16 17  2  0
 17 18  1  0
 18 19  2  0
 19 20  1  0
 20 21  2  0
 21 22  1  0
 22 23  2  0
 23 24  1  0
 24 25  1  0
 25 26  1  0
 26 27  1  0
 27 28  1  0
 28 29  1  0
 29 30  2  0
 29 31  1  0
 31 32  1  0
 32 33  2  0
 25 34  1  0
 34 35  2  0
 17 36  1  0
 36 37  2  0
  5 38  1  0
 38 39  2  0
 39  3  1  0
 37 10  1  0
 37 14  1  0
 23 18  1  0
 32 26  1  0
 34 22  1  0
  1 40  1  0
  1 41  1  0
  1 42  1  0
  2 43  1  0
  2 44  1  0
  4 45  1  0
 11 46  1  0
 13 47  1  0
 15 48  1  0
 16 49  1  0
 19 50  1  0
 20 51  1  0
 21 52  1  0
 24 53  1  0
 24 54  1  0
 26 55  1  6
 27 56  1  0
 27 57  1  0
 28 58  1  0
 28 59  1  0
 31 60  1  0
 36 61  1  0
 38 62  1  0
M  END
>  <meeko>  (491) 
{"is_sidechain": [true], "free_energy": -12.35, "intermolecular_energy": 0.0, "internal_energy": -12.35, "cluster_size": 1, "cluster_id": 2, "rank_in_cluster": 1}

>  <_RMSD_MCS_to_ref>  (491) 
1.237100912078988

$$$$
ligand
     RDKit          3D

 45 48  0  0  0  0  0  0  0  0999 V2000
   24.8710    9.6160    7.7820 C   0  0  0  0  0  0  0  0  0  0  0  0
   25.4240   10.9650    7.3490 C   0  0  0  0  0  0  0  0  0  0  0  0
   26.4450   11.4850    8.2980 C   0  0  0  0  0  0  0  0  0  0  0  0
   27.2670   12.5880    8.1730 C   0  0  0  0  0  0  0  0  0  0  0  0
   28.0050   12.5820    9.3220 N   0  0  0  0  0  0  0  0  0  0  0  0
   29.1210   13.7630    9.7630 S   0  0  0  0  0  6  0  0  0  0  0  0
   29.7740   13.2740   10.9600 O   0  0  0  0  0  0  0  0  0  0  0  0
   29.8680   14.0040    8.5440 O   0  0  0  0  0  0  0  0  0  0  0  0
   28.2990   15.1090   10.1110 O   0  0  0  0  0  0  0  0  0  0  0  0
   26.9670   15.2830   10.1170 C   0  0  0  0  0  0  0  0  0  0  0  0
   26.4220   15.8060   11.1820 N   0  0  0  0  0  0  0  0  0  0  0  0
   25.0910   15.8780   10.9280 N   0  0  0  0  0  0  0  0  0  0  0  0
   24.0380   16.3400   11.6650 C   0  0  0  0  0  0  0  0  0  0  0  0
   24.0530   16.9050   12.9830 C   0  0  0  0  0  0  0  0  0  0  0  0
   23.1220   16.7760   13.7720 O   0  0  0  0  0  0  0  0  0  0  0  0
   25.1810   17.6160   13.3140 N   0  0  0  0  0  0  0  0  0  0  0  0
   25.2870   18.3600   14.5590 C   0  0  1  0  0  0  0  0  0  0  0  0
   26.2400   17.6930   15.5450 C   0  0  0  0  0  0  0  0  0  0  0  0
   26.3310   18.5340   16.8100 C   0  0  0  0  0  0  0  0  0  0  0  0
   26.7460   19.9520   16.4960 C   0  0  0  0  0  0  0  0  0  0  0  0
   27.4400   20.6200   17.2580 O   0  0  0  0  0  0  0  0  0  0  0  0
   26.2820   20.4820   15.3190 N   0  0  0  0  0  0  0  0  0  0  0  0
   25.7950   19.7730   14.2500 C   0  0  0  0  0  0  0  0  0  0  0  0
   25.7630   20.2630   13.1220 O   0  0  0  0  0  0  0  0  0  0  0  0
   22.9480   16.1340   10.8200 C   0  0  0  0  0  0  0  0  0  0  0  0
   23.3190   15.5730    9.6110 N   0  0  0  0  0  0  0  0  0  0  0  0
   24.6060   15.4480    9.7400 C   0  0  0  0  0  0  0  0  0  0  0  0
   25.8850   14.8730    8.7640 S   0  0  0  0  0  0  0  0  0  0  0  0
   27.6370   11.5290   10.0910 C   0  0  0  0  0  0  0  0  0  0  0  0
   26.6800   10.8450    9.4990 N   0  0  0  0  0  0  0  0  0  0  0  0
   24.8497    9.5640    8.8806 H   0  0  0  0  0  0  0  0  0  0  0  0
   23.8507    9.4948    7.3893 H   0  0  0  0  0  0  0  0  0  0  0  0
   25.5127    8.8135    7.3893 H   0  0  0  0  0  0  0  0  0  0  0  0
   25.8857   10.8565    6.3565 H   0  0  0  0  0  0  0  0  0  0  0  0
   24.5889   11.6806    7.3262 H   0  0  0  0  0  0  0  0  0  0  0  0
   27.3159   13.3053    7.3405 H   0  0  0  0  0  0  0  0  0  0  0  0
   25.9766   17.6223   12.6598 H   0  0  0  0  0  0  0  0  0  0  0  0
   24.2901   18.3908   15.0229 H   0  0  0  0  0  0  0  0  0  0  0  0
   25.8641   16.6905   15.7974 H   0  0  0  0  0  0  0  0  0  0  0  0
   27.2375   17.6064   15.0896 H   0  0  0  0  0  0  0  0  0  0  0  0
   25.3474   18.5489   17.3022 H   0  0  0  0  0  0  0  0  0  0  0  0
   27.0892   18.0879   17.4704 H   0  0  0  0  0  0  0  0  0  0  0  0
   26.3009   21.5079   15.2293 H   0  0  0  0  0  0  0  0  0  0  0  0
   21.9111   16.3886   11.0846 H   0  0  0  0  0  0  0  0  0  0  0  0
   28.0747   11.2811   11.0692 H   0  0  0  0  0  0  0  0  0  0  0  0
  1  2  1  0
  2  3  1  0
  3  4  2  0
  4  5  1  0
  5  6  1  0
  6  7  2  0
  6  8  2  0
  6  9  1  0
  9 10  1  0
 10 11  2  0
 11 12  1  0
 12 13  1  0
 13 14  1  0
 14 15  2  0
 14 16  1  0
 16 17  1  0
 17 18  1  0
 18 19  1  0
 19 20  1  0
 20 21  2  0
 20 22  1  0
 22 23  1  0
 23 24  2  0
 13 25  2  0
 25 26  1  0
 26 27  2  0
 27 28  1  0
  5 29  1  0
 29 30  2  0
 30  3  1  0
 28 10  1  0
 27 12  1  0
 23 17  1  0
  1 31  1  0
  1 32  1  0
  1 33  1  0
  2 34  1  0
  2 35  1  0
  4 36  1  0
 16 37  1  0
 17 38  1  1
 18 39  1  0
 18 40  1  0
 19 41  1  0
 19 42  1  0
 22 43  1  0
 25 44  1  0
 29 45  1  0
M  END
>  <meeko>  (492) 
{"is_sidechain": [true], "free_energy": -12.35, "intermolecular_energy": 0.0, "internal_energy": -12.35, "cluster_size": 12, "cluster_id": 1, "rank_in_cluster": 1}

>  <_RMSD_MCS_to_ref>  (492) 
0.6418289837989907

$$$$
ligand
     RDKit          3D

 56 60  0  0  0  0  0  0  0  0999 V2000
   24.8540    9.4020    7.6050 C   0  0  0  0  0  0  0  0  0  0  0  0
   25.5230   10.7550    7.4270 C   0  0  0  0  0  0  0  0  0  0  0  0
   25.2140   11.3740    6.1090 C   0  0  0  0  0  0  0  0  0  0  0  0
   24.4520   12.4940    5.8370 C   0  0  0  0  0  0  0  0  0  0  0  0
   24.5060   12.6160    4.4770 N   0  0  0  0  0  0  0  0  0  0  0  0
   23.8760   13.8790    3.5630 S   0  0  0  0  0  6  0  0  0  0  0  0
   22.4340   13.7050    3.6320 O   0  0  0  0  0  0  0  0  0  0  0  0
   24.6080   13.8170    2.3070 O   0  0  0  0  0  0  0  0  0  0  0  0
   24.3440   15.3420    4.4550 C   0  0  0  0  0  0  0  0  0  0  0  0
   23.9000   16.5030    3.9410 N   0  0  0  0  0  0  0  0  0  0  0  0
   24.2460   17.5900    4.6440 C   0  0  0  0  0  0  0  0  0  0  0  0
   24.9840   17.5340    5.8070 C   0  0  0  0  0  0  0  0  0  0  0  0
   25.3840   16.2810    6.2510 C   0  0  0  0  0  0  0  0  0  0  0  0
   26.1320   16.2200    7.4510 N   0  0  0  0  0  0  0  0  0  0  0  0
   25.6720   16.4040    8.7760 C   0  0  0  0  0  0  0  0  0  0  0  0
   24.3800   15.9340    9.1190 C   0  0  0  0  0  0  0  0  0  0  0  0
   23.8500   16.1180   10.4010 C   0  0  0  0  0  0  0  0  0  0  0  0
   24.6280   16.7980   11.3140 C   0  0  0  0  0  0  0  0  0  0  0  0
   25.8850   17.3010   10.9990 C   0  0  0  0  0  0  0  0  0  0  0  0
   26.4150   17.1150    9.7320 C   0  0  0  0  0  0  0  0  0  0  0  0
   26.4530   18.0290   12.1720 C   0  0  0  0  0  0  0  0  0  0  0  0
   25.4560   17.7810   13.2080 N   0  0  0  0  0  0  0  0  0  0  0  0
   25.4710   18.4410   14.5060 C   0  0  1  0  0  0  0  0  0  0  0  0
   26.5390   17.8690   15.4340 C   0  0  0  0  0  0  0  0  0  0  0  0
   26.4350   18.5360   16.7970 C   0  0  0  0  0  0  0  0  0  0  0  0
   26.5380   20.0390   16.6790 C   0  0  0  0  0  0  0  0  0  0  0  0
   27.0630   20.7310   17.5460 O   0  0  0  0  0  0  0  0  0  0  0  0
   25.9860   20.6070   15.5580 N   0  0  0  0  0  0  0  0  0  0  0  0
   25.6700   19.9610   14.3850 C   0  0  0  0  0  0  0  0  0  0  0  0
   25.5570   20.5970   13.3400 O   0  0  0  0  0  0  0  0  0  0  0  0
   24.3360   17.1350   12.7120 C   0  0  0  0  0  0  0  0  0  0  0  0
   23.3000   16.8710   13.2920 O   0  0  0  0  0  0  0  0  0  0  0  0
   25.0810   15.1660    5.5670 N   0  0  0  0  0  0  0  0  0  0  0  0
   25.2870   11.6250    3.9730 C   0  0  0  0  0  0  0  0  0  0  0  0
   25.7300   10.8460    4.9390 N   0  0  0  0  0  0  0  0  0  0  0  0
   24.7464    9.1845    8.6779 H   0  0  0  0  0  0  0  0  0  0  0  0
   23.8606    9.4192    7.1330 H   0  0  0  0  0  0  0  0  0  0  0  0
   25.4708    8.6230    7.1330 H   0  0  0  0  0  0  0  0  0  0  0  0
   25.1743   11.4286    8.2237 H   0  0  0  0  0  0  0  0  0  0  0  0
   26.6108   10.5994    7.4767 H   0  0  0  0  0  0  0  0  0  0  0  0
   23.9224   13.1404    6.5524 H   0  0  0  0  0  0  0  0  0  0  0  0
   23.9254   18.5754    4.2750 H   0  0  0  0  0  0  0  0  0  0  0  0
   25.2459   18.4470    6.3618 H   0  0  0  0  0  0  0  0  0  0  0  0
   27.1362   16.0163    7.3465 H   0  0  0  0  0  0  0  0  0  0  0  0
   23.7794   15.4121    8.3595 H   0  0  0  0  0  0  0  0  0  0  0  0
   22.8540   15.7360   10.6693 H   0  0  0  0  0  0  0  0  0  0  0  0
   27.4060   17.5196    9.4784 H   0  0  0  0  0  0  0  0  0  0  0  0
   27.4335   17.6201   12.4574 H   0  0  0  0  0  0  0  0  0  0  0  0
   26.6320   19.0975   11.9813 H   0  0  0  0  0  0  0  0  0  0  0  0
   24.4807   18.2470   14.9437 H   0  0  0  0  0  0  0  0  0  0  0  0
   26.3875   16.7850   15.5435 H   0  0  0  0  0  0  0  0  0  0  0  0
   27.5352   18.0583   15.0078 H   0  0  0  0  0  0  0  0  0  0  0  0
   25.4667   18.2772   17.2502 H   0  0  0  0  0  0  0  0  0  0  0  0
   27.2648   18.1781   17.4242 H   0  0  0  0  0  0  0  0  0  0  0  0
   25.7887   21.6171   15.5990 H   0  0  0  0  0  0  0  0  0  0  0  0
   25.5177   11.4914    2.9058 H   0  0  0  0  0  0  0  0  0  0  0  0
  1  2  1  0
  2  3  1  0
  3  4  2  0
  4  5  1  0
  5  6  1  0
  6  7  2  0
  6  8  2  0
  6  9  1  0
  9 10  2  0
 10 11  1  0
 11 12  2  0
 12 13  1  0
 13 14  1  0
 14 15  1  0
 15 16  2  0
 16 17  1  0
 17 18  2  0
 18 19  1  0
 19 20  2  0
 19 21  1  0
 21 22  1  0
 22 23  1  0
 23 24  1  0
 24 25  1  0
 25 26  1  0
 26 27  2  0
 26 28  1  0
 28 29  1  0
 29 30  2  0
 22 31  1  0
 31 32  2  0
 13 33  2  0
  5 34  1  0
 34 35  2  0
 35  3  1  0
 33  9  1  0
 20 15  1  0
 29 23  1  0
 31 18  1  0
  1 36  1  0
  1 37  1  0
  1 38  1  0
  2 39  1  0
  2 40  1  0
  4 41  1  0
 11 42  1  0
 12 43  1  0
 14 44  1  0
 16 45  1  0
 17 46  1  0
 20 47  1  0
 21 48  1  0
 21 49  1  0
 23 50  1  1
 24 51  1  0
 24 52  1  0
 25 53  1  0
 25 54  1  0
 28 55  1  0
 34 56  1  0
M  END
>  <meeko>  (493) 
{"is_sidechain": [true], "free_energy": -12.34, "intermolecular_energy": 0.0, "internal_energy": -12.34, "cluster_size": 17, "cluster_id": 1, "rank_in_cluster": 1}

>  <_RMSD_MCS_to_ref>  (493) 
0.6135547607544445

$$$$
ligand
     RDKit          3D

 60 65  0  0  0  0  0  0  0  0999 V2000
   24.8710    9.6160    7.7820 C   0  0  0  0  0  0  0  0  0  0  0  0
   25.4240   10.9650    7.3490 C   0  0  0  0  0  0  0  0  0  0  0  0
   25.3160   11.1700    5.8790 C   0  0  0  0  0  0  0  0  0  0  0  0
   26.1840   11.8260    5.0270 C   0  0  0  0  0  0  0  0  0  0  0  0
   25.6050   11.6960    3.7960 N   0  0  0  0  0  0  0  0  0  0  0  0
   26.2100   12.3290    2.3560 S   0  0  0  0  0  6  0  0  0  0  0  0
   25.3040   11.8950    1.3080 O   0  0  0  0  0  0  0  0  0  0  0  0
   27.5970   11.8880    2.3500 O   0  0  0  0  0  0  0  0  0  0  0  0
   26.2270   13.9520    2.4440 O   0  0  0  0  0  0  0  0  0  0  0  0
   26.6360   14.6290    3.5250 C   0  0  0  0  0  0  0  0  0  0  0  0
   27.7560   15.3460    3.4890 N   0  0  0  0  0  0  0  0  0  0  0  0
   27.8150   15.8860    4.7230 N   0  0  0  0  0  0  0  0  0  0  0  0
   26.7580   15.5480    5.5300 C   0  0  0  0  0  0  0  0  0  0  0  0
   26.4450   15.8980    6.8480 C   0  0  0  0  0  0  0  0  0  0  0  0
   25.2590   15.3830    7.4060 C   0  0  0  0  0  0  0  0  0  0  0  0
   24.8800   15.7240    8.7900 C   0  0  0  0  0  0  0  0  0  0  0  0
   23.6670   15.2400    9.3420 C   0  0  0  0  0  0  0  0  0  0  0  0
   23.2870   15.5450   10.6520 C   0  0  0  0  0  0  0  0  0  0  0  0
   24.1420   16.3340   11.3920 C   0  0  0  0  0  0  0  0  0  0  0  0
   25.3390   16.8300   10.8810 C   0  0  0  0  0  0  0  0  0  0  0  0
   25.7210   16.5330    9.5830 C   0  0  0  0  0  0  0  0  0  0  0  0
   26.0380   17.6500   11.9160 C   0  0  0  0  0  0  0  0  0  0  0  0
   25.1420   17.5430   13.0600 N   0  0  0  0  0  0  0  0  0  0  0  0
   25.2710   18.3410   14.2770 C   0  0  2  0  0  0  0  0  0  0  0  0
   25.9460   19.6800   13.9770 C   0  0  0  0  0  0  0  0  0  0  0  0
   25.9500   20.5460   15.2280 C   0  0  0  0  0  0  0  0  0  0  0  0
   26.6180   19.8360   16.3800 C   0  0  0  0  0  0  0  0  0  0  0  0
   27.2550   20.4330   17.2410 O   0  0  0  0  0  0  0  0  0  0  0  0
   26.4520   18.4750   16.4410 N   0  0  0  0  0  0  0  0  0  0  0  0
   26.0070   17.6470   15.4340 C   0  0  0  0  0  0  0  0  0  0  0  0
   26.1860   16.4340   15.5160 O   0  0  0  0  0  0  0  0  0  0  0  0
   23.9990   16.8150   12.7700 C   0  0  0  0  0  0  0  0  0  0  0  0
   23.0330   16.6260   13.4810 O   0  0  0  0  0  0  0  0  0  0  0  0
   24.4410   14.5430    6.6290 C   0  0  0  0  0  0  0  0  0  0  0  0
   24.7730   14.2000    5.3090 C   0  0  0  0  0  0  0  0  0  0  0  0
   25.9560   14.7170    4.7570 C   0  0  0  0  0  0  0  0  0  0  0  0
   24.4370   11.0140    3.9220 C   0  0  0  0  0  0  0  0  0  0  0  0
   24.2340   10.6710    5.1780 N   0  0  0  0  0  0  0  0  0  0  0  0
   24.8497    9.5640    8.8806 H   0  0  0  0  0  0  0  0  0  0  0  0
   23.8507    9.4948    7.3893 H   0  0  0  0  0  0  0  0  0  0  0  0
   25.5127    8.8135    7.3893 H   0  0  0  0  0  0  0  0  0  0  0  0
   24.8606   11.7596    7.8600 H   0  0  0  0  0  0  0  0  0  0  0  0
   26.4904   10.9952    7.6172 H   0  0  0  0  0  0  0  0  0  0  0  0
   27.1250   12.3358    5.2813 H   0  0  0  0  0  0  0  0  0  0  0  0
   28.5843   16.4972    5.0321 H   0  0  0  0  0  0  0  0  0  0  0  0
   27.1059   16.5561    7.4312 H   0  0  0  0  0  0  0  0  0  0  0  0
   23.0097   14.6098    8.7249 H   0  0  0  0  0  0  0  0  0  0  0  0
   22.3435   15.1705   11.0757 H   0  0  0  0  0  0  0  0  0  0  0  0
   26.6661   16.9222    9.1765 H   0  0  0  0  0  0  0  0  0  0  0  0
   27.0303   17.2359   12.1480 H   0  0  0  0  0  0  0  0  0  0  0  0
   26.2256   18.6871   11.6011 H   0  0  0  0  0  0  0  0  0  0  0  0
   24.2371   18.4928   14.6204 H   0  0  0  0  0  0  0  0  0  0  0  0
   26.9819   19.5023   13.6524 H   0  0  0  0  0  0  0  0  0  0  0  0
   25.3914   20.1960   13.1794 H   0  0  0  0  0  0  0  0  0  0  0  0
   26.4938   21.4787   15.0172 H   0  0  0  0  0  0  0  0  0  0  0  0
   24.9078   20.7599   15.5074 H   0  0  0  0  0  0  0  0  0  0  0  0
   26.6855   18.0237   17.3369 H   0  0  0  0  0  0  0  0  0  0  0  0
   23.5149   14.1436    7.0682 H   0  0  0  0  0  0  0  0  0  0  0  0
   24.1200   13.5399    4.7193 H   0  0  0  0  0  0  0  0  0  0  0  0
   23.7553   10.7805    3.0909 H   0  0  0  0  0  0  0  0  0  0  0  0
  1  2  1  0
  2  3  1  0
  3  4  2  0
  4  5  1  0
  5  6  1  0
  6  7  2  0
  6  8  2  0
  6  9  1  0
  9 10  1  0
 10 11  2  0
 11 12  1  0
 12 13  1  0
 13 14  2  0
 14 15  1  0
 15 16  1  0
 16 17  2  0
 17 18  1  0
 18 19  2  0
 19 20  1  0
 20 21  2  0
 20 22  1  0
 22 23  1  0
 23 24  1  0
 24 25  1  0
 25 26  1  0
 26 27  1  0
 27 28  2  0
 27 29  1  0
 29 30  1  0
 30 31  2  0
 23 32  1  0
 32 33  2  0
 15 34  2  0
 34 35  1  0
 35 36  2  0
  5 37  1  0
 37 38  2  0
 38  3  1  0
 36 10  1  0
 36 13  1  0
 21 16  1  0
 30 24  1  0
 32 19  1  0
  1 39  1  0
  1 40  1  0
  1 41  1  0
  2 42  1  0
  2 43  1  0
  4 44  1  0
 12 45  1  0
 14 46  1  0
 17 47  1  0
 18 48  1  0
 21 49  1  0
 22 50  1  0
 22 51  1  0
 24 52  1  1
 25 53  1  0
 25 54  1  0
 26 55  1  0
 26 56  1  0
 29 57  1  0
 34 58  1  0
 35 59  1  0
 37 60  1  0
M  END
>  <meeko>  (494) 
{"is_sidechain": [true], "free_energy": -12.34, "intermolecular_energy": 0.0, "internal_energy": -12.34, "cluster_size": 20, "cluster_id": 1, "rank_in_cluster": 1}

>  <_RMSD_MCS_to_ref>  (494) 
1.6039293034689266

$$$$
ligand
     RDKit          3D

 59 64  0  0  0  0  0  0  0  0999 V2000
   24.8540    9.4020    7.6050 C   0  0  0  0  0  0  0  0  0  0  0  0
   25.5230   10.7550    7.4270 C   0  0  0  0  0  0  0  0  0  0  0  0
   27.0060   10.6460    7.3590 C   0  0  0  0  0  0  0  0  0  0  0  0
   27.9080   11.4640    6.7080 C   0  0  0  0  0  0  0  0  0  0  0  0
   29.1220   10.8870    6.9560 N   0  0  0  0  0  0  0  0  0  0  0  0
   30.6150   11.5040    6.5270 S   0  0  0  0  0  6  0  0  0  0  0  0
   31.5950   10.4870    6.8630 O   0  0  0  0  0  0  0  0  0  0  0  0
   30.4730   12.0440    5.1870 O   0  0  0  0  0  0  0  0  0  0  0  0
   30.9990   12.8630    7.5310 C   0  0  0  0  0  0  0  0  0  0  0  0
   32.2560   13.2600    7.8050 N   0  0  0  0  0  0  0  0  0  0  0  0
   32.0780   14.3250    8.6100 N   0  0  0  0  0  0  0  0  0  0  0  0
   30.7640   14.6170    8.8690 C   0  0  0  0  0  0  0  0  0  0  0  0
   30.1770   15.6140    9.6510 C   0  0  0  0  0  0  0  0  0  0  0  0
   28.7780   15.6360    9.7110 C   0  0  0  0  0  0  0  0  0  0  0  0
   27.9870   14.7060    9.0170 C   0  0  0  0  0  0  0  0  0  0  0  0
   26.5230   14.7520    9.1150 C   0  0  0  0  0  0  0  0  0  0  0  0
   25.7100   14.1230    8.1510 C   0  0  0  0  0  0  0  0  0  0  0  0
   24.3030   14.1690    8.2190 C   0  0  0  0  0  0  0  0  0  0  0  0
   23.6680   14.8520    9.2530 C   0  0  0  0  0  0  0  0  0  0  0  0
   24.4720   15.4650   10.1940 C   0  0  0  0  0  0  0  0  0  0  0  0
   25.8680   15.4240   10.1450 C   0  0  0  0  0  0  0  0  0  0  0  0
   26.4300   16.2120   11.2850 C   0  0  0  0  0  0  0  0  0  0  0  0
   25.2380   16.6090   12.0240 N   0  0  0  0  0  0  0  0  0  0  0  0
   25.2520   17.5940   13.0980 C   0  0  1  0  0  0  0  0  0  0  0  0
   25.8920   17.0550   14.3750 C   0  0  0  0  0  0  0  0  0  0  0  0
   25.7900   18.1030   15.4730 C   0  0  0  0  0  0  0  0  0  0  0  0
   26.4100   19.4090   15.0380 C   0  0  0  0  0  0  0  0  0  0  0  0
   27.0150   20.1410   15.8160 O   0  0  0  0  0  0  0  0  0  0  0  0
   26.2470   19.7580   13.7210 N   0  0  0  0  0  0  0  0  0  0  0  0
   25.9680   18.8920   12.6890 C   0  0  0  0  0  0  0  0  0  0  0  0
   26.2940   19.1750   11.5380 O   0  0  0  0  0  0  0  0  0  0  0  0
   24.0730   16.2530   11.3630 C   0  0  0  0  0  0  0  0  0  0  0  0
   22.9280   16.5250   11.6670 O   0  0  0  0  0  0  0  0  0  0  0  0
   28.6190   13.7250    8.2290 C   0  0  0  0  0  0  0  0  0  0  0  0
   30.0250   13.6760    8.1640 C   0  0  0  0  0  0  0  0  0  0  0  0
   28.9450    9.8140    7.7690 C   0  0  0  0  0  0  0  0  0  0  0  0
   27.6650    9.6230    8.0130 N   0  0  0  0  0  0  0  0  0  0  0  0
   24.7464    9.1845    8.6779 H   0  0  0  0  0  0  0  0  0  0  0  0
   23.8606    9.4192    7.1330 H   0  0  0  0  0  0  0  0  0  0  0  0
   25.4708    8.6230    7.1330 H   0  0  0  0  0  0  0  0  0  0  0  0
   25.1584   11.2102    6.4943 H   0  0  0  0  0  0  0  0  0  0  0  0
   25.2702   11.3736    8.3008 H   0  0  0  0  0  0  0  0  0  0  0  0
   27.6978   12.3720    6.1237 H   0  0  0  0  0  0  0  0  0  0  0  0
   32.8603   14.8719    8.9969 H   0  0  0  0  0  0  0  0  0  0  0  0
   30.7867   16.3497   10.1959 H   0  0  0  0  0  0  0  0  0  0  0  0
   28.2831   16.4060   10.3210 H   0  0  0  0  0  0  0  0  0  0  0  0
   26.1873   13.5805    7.3216 H   0  0  0  0  0  0  0  0  0  0  0  0
   23.7022   13.6617    7.4497 H   0  0  0  0  0  0  0  0  0  0  0  0
   22.5710   14.9013    9.3178 H   0  0  0  0  0  0  0  0  0  0  0  0
   27.0928   15.5918   11.9063 H   0  0  0  0  0  0  0  0  0  0  0  0
   27.0457   17.0646   10.9625 H   0  0  0  0  0  0  0  0  0  0  0  0
   24.1939   17.8175   13.2993 H   0  0  0  0  0  0  0  0  0  0  0  0
   25.3679   16.1408   14.6905 H   0  0  0  0  0  0  0  0  0  0  0  0
   26.9505   16.8232   14.1857 H   0  0  0  0  0  0  0  0  0  0  0  0
   24.7294   18.2709   15.7118 H   0  0  0  0  0  0  0  0  0  0  0  0
   26.3324   17.7364   16.3570 H   0  0  0  0  0  0  0  0  0  0  0  0
   26.3418   20.7559   13.4842 H   0  0  0  0  0  0  0  0  0  0  0  0
   28.0157   12.9983    7.6652 H   0  0  0  0  0  0  0  0  0  0  0  0
   29.7583    9.1904    8.1686 H   0  0  0  0  0  0  0  0  0  0  0  0
  1  2  1  0
  2  3  1  0
  3  4  2  0
  4  5  1  0
  5  6  1  0
  6  7  2  0
  6  8  2  0
  6  9  1  0
  9 10  2  0
 10 11  1  0
 11 12  1  0
 12 13  2  0
 13 14  1  0
 14 15  2  0
 15 16  1  0
 16 17  2  0
 17 18  1  0
 18 19  2  0
 19 20  1  0
 20 21  2  0
 21 22  1  0
 22 23  1  0
 23 24  1  0
 24 25  1  0
 25 26  1  0
 26 27  1  0
 27 28  2  0
 27 29  1  0
 29 30  1  0
 30 31  2  0
 23 32  1  0
 32 33  2  0
 15 34  1  0
 34 35  2  0
  5 36  1  0
 36 37  2  0
 37  3  1  0
 35  9  1  0
 35 12  1  0
 21 16  1  0
 30 24  1  0
 32 20  1  0
  1 38  1  0
  1 39  1  0
  1 40  1  0
  2 41  1  0
  2 42  1  0
  4 43  1  0
 11 44  1  0
 13 45  1  0
 14 46  1  0
 17 47  1  0
 18 48  1  0
 19 49  1  0
 22 50  1  0
 22 51  1  0
 24 52  1  1
 25 53  1  0
 25 54  1  0
 26 55  1  0
 26 56  1  0
 29 57  1  0
 34 58  1  0
 36 59  1  0
M  END
>  <meeko>  (495) 
{"is_sidechain": [true], "free_energy": -12.33, "intermolecular_energy": 0.0, "internal_energy": -12.33, "cluster_size": 19, "cluster_id": 1, "rank_in_cluster": 1}

>  <_RMSD_MCS_to_ref>  (495) 
1.9280629600139556

$$$$
ligand
     RDKit          3D

 60 65  0  0  0  0  0  0  0  0999 V2000
   24.8540    9.4020    7.6050 C   0  0  0  0  0  0  0  0  0  0  0  0
   25.5230   10.7550    7.4270 C   0  0  0  0  0  0  0  0  0  0  0  0
   25.2800   11.3290    6.0750 C   0  0  0  0  0  0  0  0  0  0  0  0
   25.9440   12.3580    5.4350 C   0  0  0  0  0  0  0  0  0  0  0  0
   25.3360   12.4400    4.2150 N   0  0  0  0  0  0  0  0  0  0  0  0
   25.5510   13.6790    3.0890 S   0  0  0  0  0  6  0  0  0  0  0  0
   25.0690   13.1180    1.8400 O   0  0  0  0  0  0  0  0  0  0  0  0
   26.9330   14.0860    3.2610 O   0  0  0  0  0  0  0  0  0  0  0  0
   24.5690   14.8910    3.5800 O   0  0  0  0  0  0  0  0  0  0  0  0
   24.5840   15.2670    4.9090 C   0  0  0  0  0  0  0  0  0  0  0  0
   24.0660   14.3460    5.8260 C   0  0  0  0  0  0  0  0  0  0  0  0
   24.0510   14.6340    7.1920 C   0  0  0  0  0  0  0  0  0  0  0  0
   24.5640   15.8420    7.7090 C   0  0  0  0  0  0  0  0  0  0  0  0
   24.5520   16.1550    9.1450 C   0  0  0  0  0  0  0  0  0  0  0  0
   23.4500   15.7950    9.9650 C   0  0  0  0  0  0  0  0  0  0  0  0
   23.4140   16.0770   11.3390 C   0  0  0  0  0  0  0  0  0  0  0  0
   24.4990   16.7200   11.8980 C   0  0  0  0  0  0  0  0  0  0  0  0
   25.5860   17.0720   11.1020 C   0  0  0  0  0  0  0  0  0  0  0  0
   25.6410   16.8100    9.7440 C   0  0  0  0  0  0  0  0  0  0  0  0
   26.5800   17.7340   11.9530 C   0  0  0  0  0  0  0  0  0  0  0  0
   27.6290   18.2080   11.5640 O   0  0  0  0  0  0  0  0  0  0  0  0
   26.0860   17.6970   13.2500 N   0  0  0  0  0  0  0  0  0  0  0  0
   26.6890   18.4710   14.3270 C   0  0  2  0  0  0  0  0  0  0  0  0
   26.3090   17.9430   15.7070 C   0  0  0  0  0  0  0  0  0  0  0  0
   27.0470   18.7390   16.7730 C   0  0  0  0  0  0  0  0  0  0  0  0
   26.7710   20.2180   16.6380 C   0  0  0  0  0  0  0  0  0  0  0  0
   26.6740   20.9590   17.6120 O   0  0  0  0  0  0  0  0  0  0  0  0
   26.6490   20.7050   15.3620 N   0  0  0  0  0  0  0  0  0  0  0  0
   26.3280   19.9650   14.2470 C   0  0  0  0  0  0  0  0  0  0  0  0
   25.7860   20.4990   13.2830 O   0  0  0  0  0  0  0  0  0  0  0  0
   24.7320   17.1590   13.3050 C   0  0  0  0  0  0  0  0  0  0  0  0
   25.1020   16.7200    6.7510 C   0  0  0  0  0  0  0  0  0  0  0  0
   25.6820   17.9300    7.0160 O   0  0  0  0  0  0  0  0  0  0  0  0
   26.0970   18.4500    5.8360 C   0  0  0  0  0  0  0  0  0  0  0  0
   25.7950   17.5970    4.8020 C   0  0  0  0  0  0  0  0  0  0  0  0
   25.1380   16.4740    5.3780 C   0  0  0  0  0  0  0  0  0  0  0  0
   24.3050   11.5580    4.1710 C   0  0  0  0  0  0  0  0  0  0  0  0
   24.2590   10.8470    5.2800 N   0  0  0  0  0  0  0  0  0  0  0  0
   24.7464    9.1845    8.6779 H   0  0  0  0  0  0  0  0  0  0  0  0
   23.8606    9.4192    7.1330 H   0  0  0  0  0  0  0  0  0  0  0  0
   25.4708    8.6230    7.1330 H   0  0  0  0  0  0  0  0  0  0  0  0
   25.1261   11.4486    8.1829 H   0  0  0  0  0  0  0  0  0  0  0  0
   26.6076   10.6134    7.5438 H   0  0  0  0  0  0  0  0  0  0  0  0
   26.7725   12.9707    5.8200 H   0  0  0  0  0  0  0  0  0  0  0  0
   23.6668   13.3858    5.4673 H   0  0  0  0  0  0  0  0  0  0  0  0
   23.6256   13.8953    7.8873 H   0  0  0  0  0  0  0  0  0  0  0  0
   22.5946   15.2769    9.5070 H   0  0  0  0  0  0  0  0  0  0  0  0
   22.5460   15.7937   11.9525 H   0  0  0  0  0  0  0  0  0  0  0  0
   26.5164   17.1075    9.1480 H   0  0  0  0  0  0  0  0  0  0  0  0
   27.7746   18.3581   14.1899 H   0  0  0  0  0  0  0  0  0  0  0  0
   25.2242   18.0493   15.8548 H   0  0  0  0  0  0  0  0  0  0  0  0
   26.5861   16.8812   15.7834 H   0  0  0  0  0  0  0  0  0  0  0  0
   26.7164   18.4013   17.7663 H   0  0  0  0  0  0  0  0  0  0  0  0
   28.1271   18.5729   16.6470 H   0  0  0  0  0  0  0  0  0  0  0  0
   26.8119   21.7129   15.2261 H   0  0  0  0  0  0  0  0  0  0  0  0
   24.6701   16.3098   14.0014 H   0  0  0  0  0  0  0  0  0  0  0  0
   23.9875   17.8837   13.6662 H   0  0  0  0  0  0  0  0  0  0  0  0
   26.6046   19.4192    5.7216 H   0  0  0  0  0  0  0  0  0  0  0  0
   26.0178   17.7521    3.7360 H   0  0  0  0  0  0  0  0  0  0  0  0
   23.6061   11.4516    3.3282 H   0  0  0  0  0  0  0  0  0  0  0  0
  1  2  1  0
  2  3  1  0
  3  4  2  0
  4  5  1  0
  5  6  1  0
  6  7  2  0
  6  8  2  0
  6  9  1  0
  9 10  1  0
 10 11  2  0
 11 12  1  0
 12 13  2  0
 13 14  1  0
 14 15  2  0
 15 16  1  0
 16 17  2  0
 17 18  1  0
 18 19  2  0
 18 20  1  0
 20 21  2  0
 20 22  1  0
 22 23  1  0
 23 24  1  0
 24 25  1  0
 25 26  1  0
 26 27  2  0
 26 28  1  0
 28 29  1  0
 29 30  2  0
 22 31  1  0
 13 32  1  0
 32 33  1  0
 33 34  1  0
 34 35  2  0
 35 36  1  0
  5 37  1  0
 37 38  2  0
 38  3  1  0
 36 10  1  0
 19 14  1  0
 29 23  1  0
 36 32  2  0
 31 17  1  0
  1 39  1  0
  1 40  1  0
  1 41  1  0
  2 42  1  0
  2 43  1  0
  4 44  1  0
 11 45  1  0
 12 46  1  0
 15 47  1  0
 16 48  1  0
 19 49  1  0
 23 50  1  6
 24 51  1  0
 24 52  1  0
 25 53  1  0
 25 54  1  0
 28 55  1  0
 31 56  1  0
 31 57  1  0
 34 58  1  0
 35 59  1  0
 37 60  1  0
M  END
>  <meeko>  (496) 
{"is_sidechain": [true], "free_energy": -12.33, "intermolecular_energy": 0.0, "internal_energy": -12.33, "cluster_size": 20, "cluster_id": 1, "rank_in_cluster": 1}

>  <_RMSD_MCS_to_ref>  (496) 
1.0669966677028035

$$$$
ligand
     RDKit          3D

 47 50  0  0  0  0  0  0  0  0999 V2000
   24.8710    9.6160    7.7820 C   0  0  0  0  0  0  0  0  0  0  0  0
   25.4240   10.9650    7.3490 C   0  0  0  0  0  0  0  0  0  0  0  0
   26.5450   11.4190    8.2170 C   0  0  0  0  0  0  0  0  0  0  0  0
   27.5210   12.3590    7.9540 C   0  0  0  0  0  0  0  0  0  0  0  0
   28.3030   12.3540    9.0750 N   0  0  0  0  0  0  0  0  0  0  0  0
   29.5060   13.4770    9.4420 S   0  0  0  0  0  6  0  0  0  0  0  0
   29.7450   13.2980   10.8610 O   0  0  0  0  0  0  0  0  0  0  0  0
   30.5370   13.2380    8.4490 O   0  0  0  0  0  0  0  0  0  0  0  0
   28.8320   14.9410    9.1830 O   0  0  0  0  0  0  0  0  0  0  0  0
   27.5760   15.2670    9.5080 C   0  0  0  0  0  0  0  0  0  0  0  0
   27.2260   16.1120   10.5450 C   0  0  0  0  0  0  0  0  0  0  0  0
   25.8100   16.3040   10.6900 C   0  0  0  0  0  0  0  0  0  0  0  0
   24.9950   17.0390   11.5560 C   0  0  0  0  0  0  0  0  0  0  0  0
   25.5460   17.8820   12.6560 C   0  0  0  0  0  0  0  0  0  0  0  0
   26.7050   18.2760   12.6630 O   0  0  0  0  0  0  0  0  0  0  0  0
   24.6480   18.1650   13.6620 N   0  0  0  0  0  0  0  0  0  0  0  0
   25.0350   18.8310   14.8930 C   0  0  1  0  0  0  0  0  0  0  0  0
   26.1010   18.0500   15.6550 C   0  0  0  0  0  0  0  0  0  0  0  0
   26.4810   18.8070   16.9180 C   0  0  0  0  0  0  0  0  0  0  0  0
   26.9340   20.2120   16.5990 C   0  0  0  0  0  0  0  0  0  0  0  0
   27.7970   20.7900   17.2540 O   0  0  0  0  0  0  0  0  0  0  0  0
   26.3080   20.8370   15.5500 N   0  0  0  0  0  0  0  0  0  0  0  0
   25.5790   20.2250   14.5610 C   0  0  0  0  0  0  0  0  0  0  0  0
   25.3730   20.7880   13.4870 O   0  0  0  0  0  0  0  0  0  0  0  0
   23.6420   17.0100   11.4300 N   0  0  0  0  0  0  0  0  0  0  0  0
   23.1290   16.2540   10.4510 C   0  0  0  0  0  0  0  0  0  0  0  0
   23.8000   15.5140    9.5670 N   0  0  0  0  0  0  0  0  0  0  0  0
   25.1310   15.5750    9.7310 C   0  0  0  0  0  0  0  0  0  0  0  0
   26.1700   14.7030    8.7060 S   0  0  0  0  0  0  0  0  0  0  0  0
   27.7600   11.5080    9.9900 C   0  0  0  0  0  0  0  0  0  0  0  0
   26.7030   10.9040    9.4890 N   0  0  0  0  0  0  0  0  0  0  0  0
   24.8497    9.5640    8.8806 H   0  0  0  0  0  0  0  0  0  0  0  0
   23.8507    9.4948    7.3893 H   0  0  0  0  0  0  0  0  0  0  0  0
   25.5127    8.8135    7.3893 H   0  0  0  0  0  0  0  0  0  0  0  0
   25.7882   10.8828    6.3143 H   0  0  0  0  0  0  0  0  0  0  0  0
   24.6133   11.7039    7.4310 H   0  0  0  0  0  0  0  0  0  0  0  0
   27.6419   12.9722    7.0488 H   0  0  0  0  0  0  0  0  0  0  0  0
   27.9661   16.5942   11.2005 H   0  0  0  0  0  0  0  0  0  0  0  0
   23.6626   17.8932   13.5358 H   0  0  0  0  0  0  0  0  0  0  0  0
   24.1430   18.9003   15.5330 H   0  0  0  0  0  0  0  0  0  0  0  0
   25.7059   17.0599   15.9263 H   0  0  0  0  0  0  0  0  0  0  0  0
   26.9905   17.9293   15.0192 H   0  0  0  0  0  0  0  0  0  0  0  0
   25.6069   18.8547   17.5841 H   0  0  0  0  0  0  0  0  0  0  0  0
   27.3121   18.2758   17.4049 H   0  0  0  0  0  0  0  0  0  0  0  0
   26.3932   21.8623   15.5000 H   0  0  0  0  0  0  0  0  0  0  0  0
   22.0323   16.2419   10.3664 H   0  0  0  0  0  0  0  0  0  0  0  0
   28.1493   11.3502   11.0066 H   0  0  0  0  0  0  0  0  0  0  0  0
  1  2  1  0
  2  3  1  0
  3  4  2  0
  4  5  1  0
  5  6  1  0
  6  7  2  0
  6  8  2  0
  6  9  1  0
  9 10  1  0
 10 11  2  0
 11 12  1  0
 12 13  2  0
 13 14  1  0
 14 15  2  0
 14 16  1  0
 16 17  1  0
 17 18  1  0
 18 19  1  0
 19 20  1  0
 20 21  2  0
 20 22  1  0
 22 23  1  0
 23 24  2  0
 13 25  1  0
 25 26  2  0
 26 27  1  0
 27 28  2  0
 28 29  1  0
  5 30  1  0
 30 31  2  0
 31  3  1  0
 29 10  1  0
 28 12  1  0
 23 17  1  0
  1 32  1  0
  1 33  1  0
  1 34  1  0
  2 35  1  0
  2 36  1  0
  4 37  1  0
 11 38  1  0
 16 39  1  0
 17 40  1  1
 18 41  1  0
 18 42  1  0
 19 43  1  0
 19 44  1  0
 22 45  1  0
 26 46  1  0
 30 47  1  0
M  END
>  <meeko>  (497) 
{"is_sidechain": [true], "free_energy": -12.33, "intermolecular_energy": 0.0, "internal_energy": -12.33, "cluster_size": 11, "cluster_id": 1, "rank_in_cluster": 1}

>  <_RMSD_MCS_to_ref>  (497) 
0.7718263333735704

$$$$
ligand
     RDKit          3D

 57 61  0  0  0  0  0  0  0  0999 V2000
   24.8540    9.4020    7.6050 C   0  0  0  0  0  0  0  0  0  0  0  0
   25.5230   10.7550    7.4270 C   0  0  0  0  0  0  0  0  0  0  0  0
   25.4900   11.2180    6.0120 C   0  0  0  0  0  0  0  0  0  0  0  0
   24.4670   11.8400    5.3220 C   0  0  0  0  0  0  0  0  0  0  0  0
   24.9710   12.0290    4.0650 N   0  0  0  0  0  0  0  0  0  0  0  0
   24.3270   13.0570    2.9040 S   0  0  0  0  0  6  0  0  0  0  0  0
   22.9000   12.8130    2.8800 O   0  0  0  0  0  0  0  0  0  0  0  0
   25.1790   12.9470    1.7380 O   0  0  0  0  0  0  0  0  0  0  0  0
   24.5340   14.7210    3.5110 C   0  0  0  0  0  0  0  0  0  0  0  0
   24.6750   15.9360    2.8530 C   0  0  0  0  0  0  0  0  0  0  0  0
   24.8120   16.9450    3.8390 C   0  0  0  0  0  0  0  0  0  0  0  0
   24.7500   16.3120    5.0620 C   0  0  0  0  0  0  0  0  0  0  0  0
   24.8220   16.8190    6.4230 C   0  0  0  0  0  0  0  0  0  0  0  0
   25.1900   17.9600    6.6740 O   0  0  0  0  0  0  0  0  0  0  0  0
   24.4310   15.8710    7.3530 N   0  0  0  0  0  0  0  0  0  0  0  0
   24.3320   15.9960    8.7510 C   0  0  0  0  0  0  0  0  0  0  0  0
   23.3790   15.3160    9.5350 C   0  0  0  0  0  0  0  0  0  0  0  0
   23.3360   15.4690   10.9300 C   0  0  0  0  0  0  0  0  0  0  0  0
   24.2550   16.3110   11.5250 C   0  0  0  0  0  0  0  0  0  0  0  0
   25.1910   16.9790   10.7440 C   0  0  0  0  0  0  0  0  0  0  0  0
   25.2560   16.8470    9.3690 C   0  0  0  0  0  0  0  0  0  0  0  0
   26.0400   17.7790   11.6300 C   0  0  0  0  0  0  0  0  0  0  0  0
   27.0150   18.4090   11.2660 O   0  0  0  0  0  0  0  0  0  0  0  0
   25.5260   17.6400   12.9110 N   0  0  0  0  0  0  0  0  0  0  0  0
   26.2040   18.0910   14.1210 C   0  0  2  0  0  0  0  0  0  0  0  0
   25.4740   17.7190   15.4110 C   0  0  0  0  0  0  0  0  0  0  0  0
   26.2950   18.1800   16.6060 C   0  0  0  0  0  0  0  0  0  0  0  0
   26.5720   19.6630   16.5410 C   0  0  0  0  0  0  0  0  0  0  0  0
   26.8270   20.3260   17.5420 O   0  0  0  0  0  0  0  0  0  0  0  0
   26.6100   20.2290   15.2910 N   0  0  0  0  0  0  0  0  0  0  0  0
   26.4810   19.6020   14.0730 C   0  0  0  0  0  0  0  0  0  0  0  0
   26.6830   20.2220   13.0310 O   0  0  0  0  0  0  0  0  0  0  0  0
   24.4640   16.6440   12.9640 C   0  0  0  0  0  0  0  0  0  0  0  0
   24.5840   14.9690    4.8660 O   0  0  0  0  0  0  0  0  0  0  0  0
   26.2550   11.5870    4.0350 C   0  0  0  0  0  0  0  0  0  0  0  0
   26.5970   11.0770    5.2000 N   0  0  0  0  0  0  0  0  0  0  0  0
   24.7464    9.1845    8.6779 H   0  0  0  0  0  0  0  0  0  0  0  0
   23.8606    9.4192    7.1330 H   0  0  0  0  0  0  0  0  0  0  0  0
   25.4708    8.6230    7.1330 H   0  0  0  0  0  0  0  0  0  0  0  0
   25.0009   11.4933    8.0534 H   0  0  0  0  0  0  0  0  0  0  0  0
   26.5772   10.6517    7.7236 H   0  0  0  0  0  0  0  0  0  0  0  0
   23.4721   12.1198    5.6987 H   0  0  0  0  0  0  0  0  0  0  0  0
   24.6795   16.0878    1.7635 H   0  0  0  0  0  0  0  0  0  0  0  0
   24.9424   18.0229    3.6627 H   0  0  0  0  0  0  0  0  0  0  0  0
   24.1783   14.9491    6.9695 H   0  0  0  0  0  0  0  0  0  0  0  0
   22.6533   14.6512    9.0437 H   0  0  0  0  0  0  0  0  0  0  0  0
   22.5895   14.9320   11.5336 H   0  0  0  0  0  0  0  0  0  0  0  0
   26.0085   17.3924    8.7805 H   0  0  0  0  0  0  0  0  0  0  0  0
   27.1617   17.5502   14.1420 H   0  0  0  0  0  0  0  0  0  0  0  0
   24.4897   18.2097   15.4305 H   0  0  0  0  0  0  0  0  0  0  0  0
   25.3393   16.6282   15.4560 H   0  0  0  0  0  0  0  0  0  0  0  0
   25.7393   17.9592   17.5293 H   0  0  0  0  0  0  0  0  0  0  0  0
   27.2566   17.6460   16.5939 H   0  0  0  0  0  0  0  0  0  0  0  0
   26.7526   21.2486   15.2611 H   0  0  0  0  0  0  0  0  0  0  0  0
   24.7793   15.7579   13.5345 H   0  0  0  0  0  0  0  0  0  0  0  0
   23.5533   17.0030   13.4658 H   0  0  0  0  0  0  0  0  0  0  0  0
   26.9175   11.6468    3.1589 H   0  0  0  0  0  0  0  0  0  0  0  0
  1  2  1  0
  2  3  1  0
  3  4  2  0
  4  5  1  0
  5  6  1  0
  6  7  2  0
  6  8  2  0
  6  9  1  0
  9 10  2  0
 10 11  1  0
 11 12  2  0
 12 13  1  0
 13 14  2  0
 13 15  1  0
 15 16  1  0
 16 17  2  0
 17 18  1  0
 18 19  2  0
 19 20  1  0
 20 21  2  0
 20 22  1  0
 22 23  2  0
 22 24  1  0
 24 25  1  0
 25 26  1  0
 26 27  1  0
 27 28  1  0
 28 29  2  0
 28 30  1  0
 30 31  1  0
 31 32  2  0
 24 33  1  0
 12 34  1  0
  5 35  1  0
 35 36  2  0
 36  3  1  0
 34  9  1  0
 21 16  1  0
 31 25  1  0
 33 19  1  0
  1 37  1  0
  1 38  1  0
  1 39  1  0
  2 40  1  0
  2 41  1  0
  4 42  1  0
 10 43  1  0
 11 44  1  0
 15 45  1  0
 17 46  1  0
 18 47  1  0
 21 48  1  0
 25 49  1  1
 26 50  1  0
 26 51  1  0
 27 52  1  0
 27 53  1  0
 30 54  1  0
 33 55  1  0
 33 56  1  0
 35 57  1  0
M  END
>  <meeko>  (498) 
{"is_sidechain": [true], "free_energy": -12.32, "intermolecular_energy": 0.0, "internal_energy": -12.32, "cluster_size": 14, "cluster_id": 1, "rank_in_cluster": 1}

>  <_RMSD_MCS_to_ref>  (498) 
1.1750976555163395

$$$$
ligand
     RDKit          3D

 60 64  0  0  0  0  0  0  0  0999 V2000
   24.8540    9.4020    7.6050 C   0  0  0  0  0  0  0  0  0  0  0  0
   25.5230   10.7550    7.4270 C   0  0  0  0  0  0  0  0  0  0  0  0
   27.0060   10.6660    7.5070 C   0  0  0  0  0  0  0  0  0  0  0  0
   27.9430   11.6710    7.3700 C   0  0  0  0  0  0  0  0  0  0  0  0
   29.1400   11.0280    7.4840 N   0  0  0  0  0  0  0  0  0  0  0  0
   30.6590   11.7370    7.4290 S   0  0  0  0  0  6  0  0  0  0  0  0
   30.4620   12.9450    6.6510 O   0  0  0  0  0  0  0  0  0  0  0  0
   31.6030   10.7120    7.0230 O   0  0  0  0  0  0  0  0  0  0  0  0
   31.0930   12.2030    9.0780 C   0  0  0  0  0  0  0  0  0  0  0  0
   32.2160   11.5870    9.6520 C   0  0  0  0  0  0  0  0  0  0  0  0
   32.6140   11.9150   10.9480 C   0  0  0  0  0  0  0  0  0  0  0  0
   31.8950   12.8580   11.6800 C   0  0  0  0  0  0  0  0  0  0  0  0
   30.7720   13.4650   11.1190 C   0  0  0  0  0  0  0  0  0  0  0  0
   30.3530   13.1270    9.8220 C   0  0  0  0  0  0  0  0  0  0  0  0
   29.1650   13.8470    9.3200 C   0  0  0  0  0  0  0  0  0  0  0  0
   29.3380   14.5470    8.3340 O   0  0  0  0  0  0  0  0  0  0  0  0
   28.0110   13.6480   10.0350 N   0  0  0  0  0  0  0  0  0  0  0  0
   26.7040   14.1230    9.7770 C   0  0  0  0  0  0  0  0  0  0  0  0
   26.0820   13.5740    8.6330 C   0  0  0  0  0  0  0  0  0  0  0  0
   24.7930   13.9540    8.2210 C   0  0  0  0  0  0  0  0  0  0  0  0
   24.0860   14.9060    8.9410 C   0  0  0  0  0  0  0  0  0  0  0  0
   24.7070   15.4430   10.0530 C   0  0  0  0  0  0  0  0  0  0  0  0
   25.9900   15.0760   10.4910 C   0  0  0  0  0  0  0  0  0  0  0  0
   26.3020   15.8670   11.7220 C   0  0  0  0  0  0  0  0  0  0  0  0
   25.1620   16.7640   11.8560 N   0  0  0  0  0  0  0  0  0  0  0  0
   24.9920   17.5910   13.0430 C   0  0  1  0  0  0  0  0  0  0  0  0
   25.3660   16.8750   14.3400 C   0  0  0  0  0  0  0  0  0  0  0  0
   25.0970   17.7970   15.5200 C   0  0  0  0  0  0  0  0  0  0  0  0
   25.8470   19.1010   15.3770 C   0  0  0  0  0  0  0  0  0  0  0  0
   26.1470   19.7920   16.3470 O   0  0  0  0  0  0  0  0  0  0  0  0
   26.1130   19.5230   14.0990 N   0  0  0  0  0  0  0  0  0  0  0  0
   25.7660   18.9140   12.9140 C   0  0  0  0  0  0  0  0  0  0  0  0
   25.9930   19.4730   11.8420 O   0  0  0  0  0  0  0  0  0  0  0  0
   24.1700   16.4750   10.9460 C   0  0  0  0  0  0  0  0  0  0  0  0
   23.0540   16.9520   10.8640 O   0  0  0  0  0  0  0  0  0  0  0  0
   28.9210    9.7180    7.7630 C   0  0  0  0  0  0  0  0  0  0  0  0
   27.6290    9.4580    7.7530 N   0  0  0  0  0  0  0  0  0  0  0  0
   24.7464    9.1845    8.6779 H   0  0  0  0  0  0  0  0  0  0  0  0
   23.8606    9.4192    7.1330 H   0  0  0  0  0  0  0  0  0  0  0  0
   25.4708    8.6230    7.1330 H   0  0  0  0  0  0  0  0  0  0  0  0
   25.2454   11.1602    6.4427 H   0  0  0  0  0  0  0  0  0  0  0  0
   25.1805   11.4098    8.2419 H   0  0  0  0  0  0  0  0  0  0  0  0
   27.7647   12.7441    7.2064 H   0  0  0  0  0  0  0  0  0  0  0  0
   32.7851   10.8418    9.0769 H   0  0  0  0  0  0  0  0  0  0  0  0
   33.4954   11.4293   11.3922 H   0  0  0  0  0  0  0  0  0  0  0  0
   32.2130   13.1232   12.6991 H   0  0  0  0  0  0  0  0  0  0  0  0
   30.2103   14.2140   11.6965 H   0  0  0  0  0  0  0  0  0  0  0  0
   28.1109   13.0695   10.8813 H   0  0  0  0  0  0  0  0  0  0  0  0
   26.6265   12.8218    8.0434 H   0  0  0  0  0  0  0  0  0  0  0  0
   24.3445   13.4962    7.3270 H   0  0  0  0  0  0  0  0  0  0  0  0
   23.0755   15.2197    8.6401 H   0  0  0  0  0  0  0  0  0  0  0  0
   26.3884   15.2091   12.5993 H   0  0  0  0  0  0  0  0  0  0  0  0
   27.2598   16.4034   11.6520 H   0  0  0  0  0  0  0  0  0  0  0  0
   23.9159   17.8103   13.1051 H   0  0  0  0  0  0  0  0  0  0  0  0
   24.7619   15.9614   14.4426 H   0  0  0  0  0  0  0  0  0  0  0  0
   26.4326   16.6068   14.3181 H   0  0  0  0  0  0  0  0  0  0  0  0
   24.0186   18.0073   15.5724 H   0  0  0  0  0  0  0  0  0  0  0  0
   25.4399   17.2970   16.4378 H   0  0  0  0  0  0  0  0  0  0  0  0
   26.6377   20.4054   14.0156 H   0  0  0  0  0  0  0  0  0  0  0  0
   29.7093    8.9788    7.9682 H   0  0  0  0  0  0  0  0  0  0  0  0
  1  2  1  0
  2  3  1  0
  3  4  2  0
  4  5  1  0
  5  6  1  0
  6  7  2  0
  6  8  2  0
  6  9  1  0
  9 10  2  0
 10 11  1  0
 11 12  2  0
 12 13  1  0
 13 14  2  0
 14 15  1  0
 15 16  2  0
 15 17  1  0
 17 18  1  0
 18 19  2  0
 19 20  1  0
 20 21  2  0
 21 22  1  0
 22 23  2  0
 23 24  1  0
 24 25  1  0
 25 26  1  0
 26 27  1  0
 27 28  1  0
 28 29  1  0
 29 30  2  0
 29 31  1  0
 31 32  1  0
 32 33  2  0
 25 34  1  0
 34 35  2  0
  5 36  1  0
 36 37  2  0
 37  3  1  0
 14  9  1  0
 23 18  1  0
 32 26  1  0
 34 22  1  0
  1 38  1  0
  1 39  1  0
  1 40  1  0
  2 41  1  0
  2 42  1  0
  4 43  1  0
 10 44  1  0
 11 45  1  0
 12 46  1  0
 13 47  1  0
 17 48  1  0
 19 49  1  0
 20 50  1  0
 21 51  1  0
 24 52  1  0
 24 53  1  0
 26 54  1  1
 27 55  1  0
 27 56  1  0
 28 57  1  0
 28 58  1  0
 31 59  1  0
 36 60  1  0
M  END
>  <meeko>  (499) 
{"is_sidechain": [true], "free_energy": -12.32, "intermolecular_energy": 0.0, "internal_energy": -12.32, "cluster_size": 18, "cluster_id": 1, "rank_in_cluster": 1}

>  <_RMSD_MCS_to_ref>  (499) 
1.9027895640348664

$$$$
ligand
     RDKit          3D

 64 69  0  0  0  0  0  0  0  0999 V2000
   24.8540    9.4020    7.6050 C   0  0  0  0  0  0  0  0  0  0  0  0
   25.5230   10.7550    7.4270 C   0  0  0  0  0  0  0  0  0  0  0  0
   25.4950   11.2130    6.0120 C   0  0  0  0  0  0  0  0  0  0  0  0
   26.3560   12.0760    5.3630 C   0  0  0  0  0  0  0  0  0  0  0  0
   25.8770   12.1340    4.0870 N   0  0  0  0  0  0  0  0  0  0  0  0
   26.6500   12.8390    2.7720 S   0  0  0  0  0  6  0  0  0  0  0  0
   27.9960   12.2990    2.7750 O   0  0  0  0  0  0  0  0  0  0  0  0
   25.7540   12.6750    1.6440 O   0  0  0  0  0  0  0  0  0  0  0  0
   26.7220   14.5440    3.2000 C   0  0  0  0  0  0  0  0  0  0  0  0
   27.6910   15.3900    2.6470 C   0  0  0  0  0  0  0  0  0  0  0  0
   27.7290   16.7480    3.0150 C   0  0  0  0  0  0  0  0  0  0  0  0
   26.8010   17.2690    3.9230 C   0  0  0  0  0  0  0  0  0  0  0  0
   25.8550   16.4070    4.4320 C   0  0  0  0  0  0  0  0  0  0  0  0
   25.8090   15.0830    4.0760 C   0  0  0  0  0  0  0  0  0  0  0  0
   24.6120   14.7900    4.9330 C   0  0  0  0  0  0  0  0  0  0  0  0
   24.6660   16.3030    5.3580 C   0  0  1  0  0  0  0  0  0  0  0  0
   25.0460   16.6230    6.8390 C   0  0  0  0  0  0  0  0  0  0  0  0
   26.0510   17.2640    7.1520 O   0  0  0  0  0  0  0  0  0  0  0  0
   24.1310   16.1000    7.7430 N   0  0  0  0  0  0  0  0  0  0  0  0
   24.1500   16.1880    9.1510 C   0  0  0  0  0  0  0  0  0  0  0  0
   23.1580   15.6420    9.9890 C   0  0  0  0  0  0  0  0  0  0  0  0
   23.2250   15.7640   11.3870 C   0  0  0  0  0  0  0  0  0  0  0  0
   24.3000   16.4350   11.9330 C   0  0  0  0  0  0  0  0  0  0  0  0
   25.2790   16.9690   11.1010 C   0  0  0  0  0  0  0  0  0  0  0  0
   25.2320   16.8670    9.7220 C   0  0  0  0  0  0  0  0  0  0  0  0
   26.2880   17.6180   11.9410 C   0  0  0  0  0  0  0  0  0  0  0  0
   27.2540   18.2280   11.5230 O   0  0  0  0  0  0  0  0  0  0  0  0
   25.9200   17.3920   13.2590 N   0  0  0  0  0  0  0  0  0  0  0  0
   26.5470   18.1040   14.3670 C   0  0  2  0  0  0  0  0  0  0  0  0
   25.9280   17.7470   15.7140 C   0  0  0  0  0  0  0  0  0  0  0  0
   26.6900   18.4570   16.8240 C   0  0  0  0  0  0  0  0  0  0  0  0
   26.7210   19.9500   16.5950 C   0  0  0  0  0  0  0  0  0  0  0  0
   26.6750   20.7570   17.5190 O   0  0  0  0  0  0  0  0  0  0  0  0
   26.8240   20.3690   15.2930 N   0  0  0  0  0  0  0  0  0  0  0  0
   26.4940   19.6300   14.1790 C   0  0  0  0  0  0  0  0  0  0  0  0
   26.1790   20.1920   13.1330 O   0  0  0  0  0  0  0  0  0  0  0  0
   24.6230   16.7310   13.3590 C   0  0  0  0  0  0  0  0  0  0  0  0
   24.7980   11.3160    3.9810 C   0  0  0  0  0  0  0  0  0  0  0  0
   24.5290   10.7510    5.1390 N   0  0  0  0  0  0  0  0  0  0  0  0
   24.7464    9.1845    8.6779 H   0  0  0  0  0  0  0  0  0  0  0  0
   23.8606    9.4192    7.1330 H   0  0  0  0  0  0  0  0  0  0  0  0
   25.4708    8.6230    7.1330 H   0  0  0  0  0  0  0  0  0  0  0  0
   24.9979   11.4946    8.0493 H   0  0  0  0  0  0  0  0  0  0  0  0
   26.5759   10.6538    7.7288 H   0  0  0  0  0  0  0  0  0  0  0  0
   27.2297   12.5981    5.7803 H   0  0  0  0  0  0  0  0  0  0  0  0
   28.4214   14.9939    1.9261 H   0  0  0  0  0  0  0  0  0  0  0  0
   28.4970   17.4070    2.5838 H   0  0  0  0  0  0  0  0  0  0  0  0
   26.8259   18.3280    4.2195 H   0  0  0  0  0  0  0  0  0  0  0  0
   23.7076   14.4970    4.3797 H   0  0  0  0  0  0  0  0  0  0  0  0
   24.6032   13.9732    5.6697 H   0  0  0  0  0  0  0  0  0  0  0  0
   23.7624   16.9276    5.2992 H   0  0  0  0  0  0  0  0  0  0  0  0
   23.3393   15.5831    7.3345 H   0  0  0  0  0  0  0  0  0  0  0  0
   22.3097   15.1067    9.5375 H   0  0  0  0  0  0  0  0  0  0  0  0
   22.4413   15.3360   12.0293 H   0  0  0  0  0  0  0  0  0  0  0  0
   26.0210   17.3062    9.0938 H   0  0  0  0  0  0  0  0  0  0  0  0
   27.5977   17.7784   14.3651 H   0  0  0  0  0  0  0  0  0  0  0  0
   24.8751   18.0650   15.7300 H   0  0  0  0  0  0  0  0  0  0  0  0
   25.9836   16.6592   15.8675 H   0  0  0  0  0  0  0  0  0  0  0  0
   26.1976   18.2514   17.7859 H   0  0  0  0  0  0  0  0  0  0  0  0
   27.7246   18.0835   16.8311 H   0  0  0  0  0  0  0  0  0  0  0  0
   27.1803   21.3223   15.1343 H   0  0  0  0  0  0  0  0  0  0  0  0
   24.6927   15.8064   13.9509 H   0  0  0  0  0  0  0  0  0  0  0  0
   23.8587   17.3397   13.8643 H   0  0  0  0  0  0  0  0  0  0  0  0
   24.2277   11.1488    3.0554 H   0  0  0  0  0  0  0  0  0  0  0  0
  1  2  1  0
  2  3  1  0
  3  4  2  0
  4  5  1  0
  5  6  1  0
  6  7  2  0
  6  8  2  0
  6  9  1  0
  9 10  2  0
 10 11  1  0
 11 12  2  0
 12 13  1  0
 13 14  2  0
 14 15  1  0
 15 16  1  0
 16 17  1  0
 17 18  2  0
 17 19  1  0
 19 20  1  0
 20 21  2  0
 21 22  1  0
 22 23  2  0
 23 24  1  0
 24 25  2  0
 24 26  1  0
 26 27  2  0
 26 28  1  0
 28 29  1  0
 29 30  1  0
 30 31  1  0
 31 32  1  0
 32 33  2  0
 32 34  1  0
 34 35  1  0
 35 36  2  0
 28 37  1  0
  5 38  1  0
 38 39  2  0
 39  3  1  0
 14  9  1  0
 25 20  1  0
 35 29  1  0
 16 13  1  0
 37 23  1  0
  1 40  1  0
  1 41  1  0
  1 42  1  0
  2 43  1  0
  2 44  1  0
  4 45  1  0
 10 46  1  0
 11 47  1  0
 12 48  1  0
 15 49  1  0
 15 50  1  0
 16 51  1  6
 19 52  1  0
 21 53  1  0
 22 54  1  0
 25 55  1  0
 29 56  1  1
 30 57  1  0
 30 58  1  0
 31 59  1  0
 31 60  1  0
 34 61  1  0
 37 62  1  0
 37 63  1  0
 38 64  1  0
M  END
>  <meeko>  (500) 
{"is_sidechain": [true], "free_energy": -12.32, "intermolecular_energy": 0.0, "internal_energy": -12.32, "cluster_size": 2, "cluster_id": 2, "rank_in_cluster": 1}

>  <_RMSD_MCS_to_ref>  (500) 
1.1111536797401147

$$$$
ligand
     RDKit          3D

 54 58  0  0  0  0  0  0  0  0999 V2000
   24.8710    9.6160    7.7820 C   0  0  0  0  0  0  0  0  0  0  0  0
   25.4240   10.9650    7.3490 C   0  0  0  0  0  0  0  0  0  0  0  0
   26.6540   11.3350    8.1010 C   0  0  0  0  0  0  0  0  0  0  0  0
   27.8130   11.9230    7.6350 C   0  0  0  0  0  0  0  0  0  0  0  0
   28.6150   12.0010    8.7380 N   0  0  0  0  0  0  0  0  0  0  0  0
   30.0790   12.8310    8.8370 S   0  0  0  0  0  6  0  0  0  0  0  0
   30.7950   12.4580    7.6300 O   0  0  0  0  0  0  0  0  0  0  0  0
   30.5990   12.5080   10.1530 O   0  0  0  0  0  0  0  0  0  0  0  0
   29.7050   14.4070    8.7780 O   0  0  0  0  0  0  0  0  0  0  0  0
   28.4490   14.8310    8.9680 C   0  0  0  0  0  0  0  0  0  0  0  0
   27.6600   14.9170   10.1270 C   0  0  0  0  0  0  0  0  0  0  0  0
   26.4480   15.4150    9.6890 C   0  0  0  0  0  0  0  0  0  0  0  0
   25.2260   15.7310   10.4070 C   0  0  0  0  0  0  0  0  0  0  0  0
   23.9930   15.2200    9.9670 C   0  0  0  0  0  0  0  0  0  0  0  0
   22.7980   15.4930   10.6590 C   0  0  0  0  0  0  0  0  0  0  0  0
   22.8100   16.2880   11.8030 C   0  0  0  0  0  0  0  0  0  0  0  0
   24.0290   16.7960   12.2100 C   0  0  0  0  0  0  0  0  0  0  0  0
   25.2240   16.5380   11.5360 C   0  0  0  0  0  0  0  0  0  0  0  0
   26.3470   17.2500   12.2170 C   0  0  0  0  0  0  0  0  0  0  0  0
   25.6740   17.9610   13.2960 N   0  0  0  0  0  0  0  0  0  0  0  0
   26.3800   18.5840   14.4090 C   0  0  2  0  0  0  0  0  0  0  0  0
   26.0300   17.9540   15.7530 C   0  0  0  0  0  0  0  0  0  0  0  0
   26.8690   18.5970   16.8460 C   0  0  0  0  0  0  0  0  0  0  0  0
   26.6950   20.0980   16.8580 C   0  0  0  0  0  0  0  0  0  0  0  0
   26.6910   20.7510   17.8970 O   0  0  0  0  0  0  0  0  0  0  0  0
   26.5550   20.7100   15.6380 N   0  0  0  0  0  0  0  0  0  0  0  0
   26.1160   20.0990   14.4860 C   0  0  0  0  0  0  0  0  0  0  0  0
   25.5410   20.7490   13.6160 O   0  0  0  0  0  0  0  0  0  0  0  0
   24.3240   17.6560   13.3600 C   0  0  0  0  0  0  0  0  0  0  0  0
   23.5150   18.0080   14.1960 O   0  0  0  0  0  0  0  0  0  0  0  0
   26.6100   15.6300    8.3430 N   0  0  0  0  0  0  0  0  0  0  0  0
   27.8130   15.2500    7.8760 N   0  0  0  0  0  0  0  0  0  0  0  0
   27.9270   11.5580    9.8210 C   0  0  0  0  0  0  0  0  0  0  0  0
   26.7390   11.1170    9.4620 N   0  0  0  0  0  0  0  0  0  0  0  0
   24.8497    9.5640    8.8806 H   0  0  0  0  0  0  0  0  0  0  0  0
   23.8507    9.4948    7.3893 H   0  0  0  0  0  0  0  0  0  0  0  0
   25.5127    8.8135    7.3893 H   0  0  0  0  0  0  0  0  0  0  0  0
   25.6639   10.9219    6.2763 H   0  0  0  0  0  0  0  0  0  0  0  0
   24.6584   11.7269    7.5573 H   0  0  0  0  0  0  0  0  0  0  0  0
   28.0388   12.2530    6.6103 H   0  0  0  0  0  0  0  0  0  0  0  0
   27.9440   14.6477   11.1550 H   0  0  0  0  0  0  0  0  0  0  0  0
   23.9611   14.5938    9.0632 H   0  0  0  0  0  0  0  0  0  0  0  0
   21.8480   15.0757   10.2939 H   0  0  0  0  0  0  0  0  0  0  0  0
   21.8861   16.5028   12.3600 H   0  0  0  0  0  0  0  0  0  0  0  0
   27.0855   16.5373   12.6128 H   0  0  0  0  0  0  0  0  0  0  0  0
   26.9120   17.9132   11.5455 H   0  0  0  0  0  0  0  0  0  0  0  0
   27.4473   18.4110   14.2066 H   0  0  0  0  0  0  0  0  0  0  0  0
   24.9630   18.1147   15.9669 H   0  0  0  0  0  0  0  0  0  0  0  0
   26.2374   16.8743   15.7178 H   0  0  0  0  0  0  0  0  0  0  0  0
   26.5592   18.1923   17.8208 H   0  0  0  0  0  0  0  0  0  0  0  0
   27.9276   18.3710   16.6504 H   0  0  0  0  0  0  0  0  0  0  0  0
   26.7986   21.7091   15.5797 H   0  0  0  0  0  0  0  0  0  0  0  0
   25.8791   16.0435    7.7466 H   0  0  0  0  0  0  0  0  0  0  0  0
   28.3079   11.5662   10.8529 H   0  0  0  0  0  0  0  0  0  0  0  0
  1  2  1  0
  2  3  1  0
  3  4  2  0
  4  5  1  0
  5  6  1  0
  6  7  2  0
  6  8  2  0
  6  9  1  0
  9 10  1  0
 10 11  1  0
 11 12  2  0
 12 13  1  0
 13 14  2  0
 14 15  1  0
 15 16  2  0
 16 17  1  0
 17 18  2  0
 18 19  1  0
 19 20  1  0
 20 21  1  0
 21 22  1  0
 22 23  1  0
 23 24  1  0
 24 25  2  0
 24 26  1  0
 26 27  1  0
 27 28  2  0
 20 29  1  0
 29 30  2  0
 12 31  1  0
 31 32  1  0
  5 33  1  0
 33 34  2  0
 34  3  1  0
 32 10  2  0
 18 13  1  0
 27 21  1  0
 29 17  1  0
  1 35  1  0
  1 36  1  0
  1 37  1  0
  2 38  1  0
  2 39  1  0
  4 40  1  0
 11 41  1  0
 14 42  1  0
 15 43  1  0
 16 44  1  0
 19 45  1  0
 19 46  1  0
 21 47  1  6
 22 48  1  0
 22 49  1  0
 23 50  1  0
 23 51  1  0
 26 52  1  0
 31 53  1  0
 33 54  1  0
M  END
>  <meeko>  (501) 
{"is_sidechain": [true], "free_energy": -12.32, "intermolecular_energy": 0.0, "internal_energy": -12.32, "cluster_size": 17, "cluster_id": 1, "rank_in_cluster": 1}

>  <_RMSD_MCS_to_ref>  (501) 
1.221641268494516

$$$$
ligand
     RDKit          3D

 60 65  0  0  0  0  0  0  0  0999 V2000
   24.8540    9.4020    7.6050 C   0  0  0  0  0  0  0  0  0  0  0  0
   25.5230   10.7550    7.4270 C   0  0  0  0  0  0  0  0  0  0  0  0
   25.2500   11.3460    6.0880 C   0  0  0  0  0  0  0  0  0  0  0  0
   24.6990   12.5720    5.7750 C   0  0  0  0  0  0  0  0  0  0  0  0
   24.7010   12.6020    4.4110 N   0  0  0  0  0  0  0  0  0  0  0  0
   23.9440   13.7500    3.4550 S   0  0  0  0  0  6  0  0  0  0  0  0
   22.5250   13.6610    3.7340 O   0  0  0  0  0  0  0  0  0  0  0  0
   24.5020   13.6270    2.1260 O   0  0  0  0  0  0  0  0  0  0  0  0
   24.4080   15.3630    4.0060 C   0  0  0  0  0  0  0  0  0  0  0  0
   24.2510   16.6330    3.4700 C   0  0  0  0  0  0  0  0  0  0  0  0
   24.8250   17.5570    4.3720 C   0  0  0  0  0  0  0  0  0  0  0  0
   24.9280   18.8970    4.2720 N   0  0  0  0  0  0  0  0  0  0  0  0
   25.5600   19.4530    5.3150 C   0  0  0  0  0  0  0  0  0  0  0  0
   26.0590   18.8400    6.4070 N   0  0  0  0  0  0  0  0  0  0  0  0
   25.9190   17.5040    6.5170 C   0  0  0  0  0  0  0  0  0  0  0  0
   26.4470   16.8690    7.6470 N   0  0  0  0  0  0  0  0  0  0  0  0
   25.9270   16.8520    8.9590 C   0  0  0  0  0  0  0  0  0  0  0  0
   24.7780   16.1080    9.3150 C   0  0  0  0  0  0  0  0  0  0  0  0
   24.2680   16.1180   10.6210 C   0  0  0  0  0  0  0  0  0  0  0  0
   24.9150   16.8900   11.5660 C   0  0  0  0  0  0  0  0  0  0  0  0
   26.0320   17.6380   11.2080 C   0  0  0  0  0  0  0  0  0  0  0  0
   26.5500   17.6490    9.9270 C   0  0  0  0  0  0  0  0  0  0  0  0
   26.4940   18.3650   12.3960 C   0  0  0  0  0  0  0  0  0  0  0  0
   27.4010   19.1730   12.4000 O   0  0  0  0  0  0  0  0  0  0  0  0
   25.6910   17.9600   13.4510 N   0  0  0  0  0  0  0  0  0  0  0  0
   25.6650   18.6070   14.7590 C   0  0  1  0  0  0  0  0  0  0  0  0
   26.6790   18.0340   15.7490 C   0  0  0  0  0  0  0  0  0  0  0  0
   26.5240   18.7350   17.0900 C   0  0  0  0  0  0  0  0  0  0  0  0
   26.6810   20.2300   16.9490 C   0  0  0  0  0  0  0  0  0  0  0  0
   27.0090   20.9460   17.8910 O   0  0  0  0  0  0  0  0  0  0  0  0
   26.3570   20.7720   15.7300 N   0  0  0  0  0  0  0  0  0  0  0  0
   25.8380   20.1280   14.6300 C   0  0  0  0  0  0  0  0  0  0  0  0
   25.4470   20.7750   13.6590 O   0  0  0  0  0  0  0  0  0  0  0  0
   24.5910   17.1150   13.0050 C   0  0  0  0  0  0  0  0  0  0  0  0
   25.3060   16.8470    5.4570 C   0  0  0  0  0  0  0  0  0  0  0  0
   25.0640   15.5190    5.2080 N   0  0  0  0  0  0  0  0  0  0  0  0
   25.1710   11.4190    3.9400 C   0  0  0  0  0  0  0  0  0  0  0  0
   25.5350   10.6380    4.9360 N   0  0  0  0  0  0  0  0  0  0  0  0
   24.7464    9.1845    8.6779 H   0  0  0  0  0  0  0  0  0  0  0  0
   23.8606    9.4192    7.1330 H   0  0  0  0  0  0  0  0  0  0  0  0
   25.4708    8.6230    7.1330 H   0  0  0  0  0  0  0  0  0  0  0  0
   25.1464   11.4408    8.2003 H   0  0  0  0  0  0  0  0  0  0  0  0
   26.6096   10.6086    7.5162 H   0  0  0  0  0  0  0  0  0  0  0  0
   24.3401   13.3479    6.4672 H   0  0  0  0  0  0  0  0  0  0  0  0
   23.7661   16.8772    2.5133 H   0  0  0  0  0  0  0  0  0  0  0  0
   25.6873   20.5449    5.2750 H   0  0  0  0  0  0  0  0  0  0  0  0
   27.3245   16.3492    7.5032 H   0  0  0  0  0  0  0  0  0  0  0  0
   24.2711   15.5055    8.5469 H   0  0  0  0  0  0  0  0  0  0  0  0
   23.3781   15.5279   10.8854 H   0  0  0  0  0  0  0  0  0  0  0  0
   27.4256   18.2654    9.6753 H   0  0  0  0  0  0  0  0  0  0  0  0
   24.6701   18.3915   15.1758 H   0  0  0  0  0  0  0  0  0  0  0  0
   26.5005   16.9559   15.8752 H   0  0  0  0  0  0  0  0  0  0  0  0
   27.6979   18.1926   15.3660 H   0  0  0  0  0  0  0  0  0  0  0  0
   25.5251   18.5163   17.4953 H   0  0  0  0  0  0  0  0  0  0  0  0
   27.3082   18.3659   17.7673 H   0  0  0  0  0  0  0  0  0  0  0  0
   26.5224   21.7833   15.6261 H   0  0  0  0  0  0  0  0  0  0  0  0
   24.5694   16.1656   13.5602 H   0  0  0  0  0  0  0  0  0  0  0  0
   23.6006   17.5662   13.1647 H   0  0  0  0  0  0  0  0  0  0  0  0
   25.3351   14.7463    5.8328 H   0  0  0  0  0  0  0  0  0  0  0  0
   25.2384   11.1502    2.8755 H   0  0  0  0  0  0  0  0  0  0  0  0
  1  2  1  0
  2  3  1  0
  3  4  2  0
  4  5  1  0
  5  6  1  0
  6  7  2  0
  6  8  2  0
  6  9  1  0
  9 10  2  0
 10 11  1  0
 11 12  2  0
 12 13  1  0
 13 14  2  0
 14 15  1  0
 15 16  1  0
 16 17  1  0
 17 18  2  0
 18 19  1  0
 19 20  2  0
 20 21  1  0
 21 22  2  0
 21 23  1  0
 23 24  2  0
 23 25  1  0
 25 26  1  0
 26 27  1  0
 27 28  1  0
 28 29  1  0
 29 30  2  0
 29 31  1  0
 31 32  1  0
 32 33  2  0
 25 34  1  0
 15 35  2  0
 35 36  1  0
  5 37  1  0
 37 38  2  0
 38  3  1  0
 36  9  1  0
 35 11  1  0
 22 17  1  0
 32 26  1  0
 34 20  1  0
  1 39  1  0
  1 40  1  0
  1 41  1  0
  2 42  1  0
  2 43  1  0
  4 44  1  0
 10 45  1  0
 13 46  1  0
 16 47  1  0
 18 48  1  0
 19 49  1  0
 22 50  1  0
 26 51  1  1
 27 52  1  0
 27 53  1  0
 28 54  1  0
 28 55  1  0
 31 56  1  0
 34 57  1  0
 34 58  1  0
 36 59  1  0
 37 60  1  0
M  END
>  <meeko>  (502) 
{"is_sidechain": [true], "free_energy": -12.31, "intermolecular_energy": 0.0, "internal_energy": -12.31, "cluster_size": 15, "cluster_id": 1, "rank_in_cluster": 1}

>  <_RMSD_MCS_to_ref>  (502) 
0.7704710680269989

$$$$
ligand
     RDKit          3D

 60 65  0  0  0  0  0  0  0  0999 V2000
   24.8710    9.6170    7.7820 C   0  0  0  0  0  0  0  0  0  0  0  0
   25.4240   10.9640    7.3490 C   0  0  0  0  0  0  0  0  0  0  0  0
   26.5880   11.3860    8.1740 C   0  0  0  0  0  0  0  0  0  0  0  0
   27.7660   11.9830    7.7710 C   0  0  0  0  0  0  0  0  0  0  0  0
   28.4780   12.1300    8.9260 N   0  0  0  0  0  0  0  0  0  0  0  0
   29.9380   12.9580    9.0890 S   0  0  0  0  0  6  0  0  0  0  0  0
   30.1850   13.0110   10.5180 O   0  0  0  0  0  0  0  0  0  0  0  0
   30.8510   12.2550    8.2050 O   0  0  0  0  0  0  0  0  0  0  0  0
   29.7330   14.4690    8.4930 O   0  0  0  0  0  0  0  0  0  0  0  0
   29.0520   14.6540    7.3110 C   0  0  0  0  0  0  0  0  0  0  0  0
   29.7060   14.3460    6.1120 C   0  0  0  0  0  0  0  0  0  0  0  0
   29.0550   14.4920    4.8830 C   0  0  0  0  0  0  0  0  0  0  0  0
   27.7210   14.9330    4.8770 C   0  0  0  0  0  0  0  0  0  0  0  0
   26.7540   15.1910    3.8680 C   0  0  0  0  0  0  0  0  0  0  0  0
   25.6120   15.5900    4.5190 C   0  0  0  0  0  0  0  0  0  0  0  0
   25.8060   15.5950    5.8620 O   0  0  0  0  0  0  0  0  0  0  0  0
   27.0960   15.2020    6.0920 C   0  0  0  0  0  0  0  0  0  0  0  0
   27.7040   15.0740    7.3540 C   0  0  0  0  0  0  0  0  0  0  0  0
   26.9670   15.3660    8.5910 C   0  0  0  0  0  0  0  0  0  0  0  0
   25.8470   14.5790    8.9650 C   0  0  0  0  0  0  0  0  0  0  0  0
   25.1070   14.8510   10.1210 C   0  0  0  0  0  0  0  0  0  0  0  0
   25.5050   15.9260   10.8860 C   0  0  0  0  0  0  0  0  0  0  0  0
   26.6050   16.7130   10.5610 C   0  0  0  0  0  0  0  0  0  0  0  0
   27.3460   16.4420    9.4210 C   0  0  0  0  0  0  0  0  0  0  0  0
   26.7910   17.7840   11.5850 C   0  0  0  0  0  0  0  0  0  0  0  0
   25.6630   17.5590   12.4820 N   0  0  0  0  0  0  0  0  0  0  0  0
   25.4950   18.2330   13.7650 C   0  0  1  0  0  0  0  0  0  0  0  0
   26.3080   17.5370   14.8580 C   0  0  0  0  0  0  0  0  0  0  0  0
   26.0180   18.1790   16.2040 C   0  0  0  0  0  0  0  0  0  0  0  0
   26.2910   19.6630   16.1730 C   0  0  0  0  0  0  0  0  0  0  0  0
   26.6890   20.2810   17.1550 O   0  0  0  0  0  0  0  0  0  0  0  0
   26.0400   20.3080   14.9880 N   0  0  0  0  0  0  0  0  0  0  0  0
   25.8290   19.7330   13.7550 C   0  0  0  0  0  0  0  0  0  0  0  0
   25.8830   20.4240   12.7390 O   0  0  0  0  0  0  0  0  0  0  0  0
   24.9190   16.4460   12.1250 C   0  0  0  0  0  0  0  0  0  0  0  0
   23.9770   15.9560   12.7170 O   0  0  0  0  0  0  0  0  0  0  0  0
   27.7270   11.7020    9.9720 C   0  0  0  0  0  0  0  0  0  0  0  0
   26.5750   11.2260    9.5480 N   0  0  0  0  0  0  0  0  0  0  0  0
   24.8498    9.5653    8.8806 H   0  0  0  0  0  0  0  0  0  0  0  0
   23.8505    9.4962    7.3895 H   0  0  0  0  0  0  0  0  0  0  0  0
   25.5122    8.8140    7.3895 H   0  0  0  0  0  0  0  0  0  0  0  0
   25.7412   10.8953    6.2980 H   0  0  0  0  0  0  0  0  0  0  0  0
   24.6289   11.7128    7.4794 H   0  0  0  0  0  0  0  0  0  0  0  0
   28.0626   12.2736    6.7524 H   0  0  0  0  0  0  0  0  0  0  0  0
   30.7447   13.9847    6.1370 H   0  0  0  0  0  0  0  0  0  0  0  0
   29.5762   14.2664    3.9410 H   0  0  0  0  0  0  0  0  0  0  0  0
   26.8925   15.0910    2.7813 H   0  0  0  0  0  0  0  0  0  0  0  0
   24.6712   15.8669    4.0209 H   0  0  0  0  0  0  0  0  0  0  0  0
   25.5524   13.7316    8.3285 H   0  0  0  0  0  0  0  0  0  0  0  0
   24.2435   14.2325   10.4072 H   0  0  0  0  0  0  0  0  0  0  0  0
   28.2201   17.0594    9.1664 H   0  0  0  0  0  0  0  0  0  0  0  0
   27.7488   17.6675   12.1132 H   0  0  0  0  0  0  0  0  0  0  0  0
   26.8191   18.7982   11.1601 H   0  0  0  0  0  0  0  0  0  0  0  0
   24.4184   18.1593   13.9786 H   0  0  0  0  0  0  0  0  0  0  0  0
   26.0339   16.4723   14.8948 H   0  0  0  0  0  0  0  0  0  0  0  0
   27.3799   17.6366   14.6319 H   0  0  0  0  0  0  0  0  0  0  0  0
   24.9608   18.0143   16.4594 H   0  0  0  0  0  0  0  0  0  0  0  0
   26.6759   17.7202   16.9568 H   0  0  0  0  0  0  0  0  0  0  0  0
   26.0056   21.3368   15.0252 H   0  0  0  0  0  0  0  0  0  0  0  0
   28.0372   11.7465   11.0264 H   0  0  0  0  0  0  0  0  0  0  0  0
  1  2  1  0
  2  3  1  0
  3  4  2  0
  4  5  1  0
  5  6  1  0
  6  7  2  0
  6  8  2  0
  6  9  1  0
  9 10  1  0
 10 11  2  0
 11 12  1  0
 12 13  2  0
 13 14  1  0
 14 15  2  0
 15 16  1  0
 16 17  1  0
 17 18  2  0
 18 19  1  0
 19 20  2  0
 20 21  1  0
 21 22  2  0
 22 23  1  0
 23 24  2  0
 23 25  1  0
 25 26  1  0
 26 27  1  0
 27 28  1  0
 28 29  1  0
 29 30  1  0
 30 31  2  0
 30 32  1  0
 32 33  1  0
 33 34  2  0
 26 35  1  0
 35 36  2  0
  5 37  1  0
 37 38  2  0
 38  3  1  0
 18 10  1  0
 24 19  1  0
 33 27  1  0
 17 13  1  0
 35 22  1  0
  1 39  1  0
  1 40  1  0
  1 41  1  0
  2 42  1  0
  2 43  1  0
  4 44  1  0
 11 45  1  0
 12 46  1  0
 14 47  1  0
 15 48  1  0
 20 49  1  0
 21 50  1  0
 24 51  1  0
 25 52  1  0
 25 53  1  0
 27 54  1  1
 28 55  1  0
 28 56  1  0
 29 57  1  0
 29 58  1  0
 32 59  1  0
 37 60  1  0
M  END
>  <meeko>  (503) 
{"is_sidechain": [true], "free_energy": -12.31, "intermolecular_energy": 0.0, "internal_energy": -12.31, "cluster_size": 8, "cluster_id": 1, "rank_in_cluster": 1}

>  <_RMSD_MCS_to_ref>  (503) 
1.391882103295277

$$$$
ligand
     RDKit          3D

 55 59  0  0  0  0  0  0  0  0999 V2000
   24.8710    9.6160    7.7820 C   0  0  0  0  0  0  0  0  0  0  0  0
   25.4240   10.9650    7.3490 C   0  0  0  0  0  0  0  0  0  0  0  0
   26.9080   10.9580    7.2490 C   0  0  0  0  0  0  0  0  0  0  0  0
   27.7460   11.8990    6.6840 C   0  0  0  0  0  0  0  0  0  0  0  0
   28.9970   11.3700    6.8380 N   0  0  0  0  0  0  0  0  0  0  0  0
   30.4500   12.1760    6.5530 S   0  0  0  0  0  6  0  0  0  0  0  0
   31.4780   11.2070    6.8870 O   0  0  0  0  0  0  0  0  0  0  0  0
   30.3150   12.7070    5.2080 O   0  0  0  0  0  0  0  0  0  0  0  0
   30.4920   13.4060    7.6210 O   0  0  0  0  0  0  0  0  0  0  0  0
   29.3640   14.0750    8.0270 C   0  0  0  0  0  0  0  0  0  0  0  0
   29.1080   14.0030    9.3980 C   0  0  0  0  0  0  0  0  0  0  0  0
   27.9930   14.6350    9.9600 C   0  0  0  0  0  0  0  0  0  0  0  0
   27.1110   15.3540    9.1270 C   0  0  0  0  0  0  0  0  0  0  0  0
   25.9130   16.1040    9.3470 C   0  0  0  0  0  0  0  0  0  0  0  0
   25.1760   16.3420   10.5770 C   0  0  0  0  0  0  0  0  0  0  0  0
   23.9160   15.7710   10.7570 C   0  0  0  0  0  0  0  0  0  0  0  0
   23.2110   16.0060   11.9340 C   0  0  0  0  0  0  0  0  0  0  0  0
   23.7640   16.8110   12.9360 C   0  0  0  0  0  0  0  0  0  0  0  0
   25.0290   17.3980   12.7860 C   0  0  0  0  0  0  0  0  0  0  0  0
   25.6040   18.2060   13.8290 N   0  0  0  0  0  0  0  0  0  0  0  0
   26.3150   17.5620   14.9290 C   0  0  0  0  0  0  0  0  0  0  0  0
   26.0760   18.2930   16.2330 C   0  0  0  0  0  0  0  0  0  0  0  0
   26.4240   19.7390   16.0590 C   0  0  0  0  0  0  0  0  0  0  0  0
   26.7270   20.4630   17.0020 O   0  0  0  0  0  0  0  0  0  0  0  0
   26.2960   20.2300   14.7900 N   0  0  0  0  0  0  0  0  0  0  0  0
   25.6950   19.5990   13.7250 C   0  0  0  0  0  0  0  0  0  0  0  0
   25.3070   20.2960   12.7900 O   0  0  0  0  0  0  0  0  0  0  0  0
   25.7230   17.1480   11.5900 C   0  0  0  0  0  0  0  0  0  0  0  0
   25.5080   16.5950    8.1220 C   0  0  0  0  0  0  0  0  0  0  0  0
   26.4030   16.1700    7.1770 N   0  0  0  0  0  0  0  0  0  0  0  0
   27.3930   15.4140    7.7630 C   0  0  0  0  0  0  0  0  0  0  0  0
   28.5060   14.7860    7.1820 C   0  0  0  0  0  0  0  0  0  0  0  0
   28.9050   10.2120    7.5400 C   0  0  0  0  0  0  0  0  0  0  0  0
   27.6440    9.9180    7.7830 N   0  0  0  0  0  0  0  0  0  0  0  0
   24.8497    9.5640    8.8806 H   0  0  0  0  0  0  0  0  0  0  0  0
   23.8507    9.4948    7.3893 H   0  0  0  0  0  0  0  0  0  0  0  0
   25.5127    8.8135    7.3893 H   0  0  0  0  0  0  0  0  0  0  0  0
   25.0039   11.2208    6.3651 H   0  0  0  0  0  0  0  0  0  0  0  0
   25.1404   11.7064    8.1105 H   0  0  0  0  0  0  0  0  0  0  0  0
   27.4699   12.8558    6.2167 H   0  0  0  0  0  0  0  0  0  0  0  0
   29.7945   13.4399   10.0473 H   0  0  0  0  0  0  0  0  0  0  0  0
   27.8062   14.5715   11.0422 H   0  0  0  0  0  0  0  0  0  0  0  0
   23.4807   15.1367    9.9708 H   0  0  0  0  0  0  0  0  0  0  0  0
   22.2167   15.5577   12.0768 H   0  0  0  0  0  0  0  0  0  0  0  0
   23.1948   16.9872   13.8606 H   0  0  0  0  0  0  0  0  0  0  0  0
   25.9609   16.5253   15.0279 H   0  0  0  0  0  0  0  0  0  0  0  0
   27.3925   17.5825   14.7088 H   0  0  0  0  0  0  0  0  0  0  0  0
   25.0174   18.2012   16.5173 H   0  0  0  0  0  0  0  0  0  0  0  0
   26.7041   17.8546   17.0224 H   0  0  0  0  0  0  0  0  0  0  0  0
   26.6885   21.1657   14.6131 H   0  0  0  0  0  0  0  0  0  0  0  0
   26.7179   17.5937   11.4432 H   0  0  0  0  0  0  0  0  0  0  0  0
   24.6210   17.2188    7.9373 H   0  0  0  0  0  0  0  0  0  0  0  0
   26.3440   16.3852    6.1715 H   0  0  0  0  0  0  0  0  0  0  0  0
   28.6965   14.8509    6.1006 H   0  0  0  0  0  0  0  0  0  0  0  0
   29.7635    9.6039    7.8612 H   0  0  0  0  0  0  0  0  0  0  0  0
  1  2  1  0
  2  3  1  0
  3  4  2  0
  4  5  1  0
  5  6  1  0
  6  7  2  0
  6  8  2  0
  6  9  1  0
  9 10  1  0
 10 11  2  0
 11 12  1  0
 12 13  2  0
 13 14  1  0
 14 15  1  0
 15 16  2  0
 16 17  1  0
 17 18  2  0
 18 19  1  0
 19 20  1  0
 20 21  1  0
 21 22  1  0
 22 23  1  0
 23 24  2  0
 23 25  1  0
 25 26  1  0
 26 27  2  0
 19 28  2  0
 14 29  2  0
 29 30  1  0
 30 31  1  0
 31 32  2  0
  5 33  1  0
 33 34  2  0
 34  3  1  0
 32 10  1  0
 31 13  1  0
 28 15  1  0
 26 20  1  0
  1 35  1  0
  1 36  1  0
  1 37  1  0
  2 38  1  0
  2 39  1  0
  4 40  1  0
 11 41  1  0
 12 42  1  0
 16 43  1  0
 17 44  1  0
 18 45  1  0
 21 46  1  0
 21 47  1  0
 22 48  1  0
 22 49  1  0
 25 50  1  0
 28 51  1  0
 29 52  1  0
 30 53  1  0
 32 54  1  0
 33 55  1  0
M  END
>  <meeko>  (504) 
{"is_sidechain": [true], "free_energy": -12.31, "intermolecular_energy": 0.0, "internal_energy": -12.31, "cluster_size": 17, "cluster_id": 1, "rank_in_cluster": 1}

>  <_RMSD_MCS_to_ref>  (504) 
0.7944092931228836

$$$$
ligand
     RDKit          3D

 58 62  0  0  0  0  0  0  0  0999 V2000
   24.8540    9.4020    7.6050 C   0  0  0  0  0  0  0  0  0  0  0  0
   25.5230   10.7550    7.4270 C   0  0  0  0  0  0  0  0  0  0  0  0
   25.0900   11.4400    6.1780 C   0  0  0  0  0  0  0  0  0  0  0  0
   25.4490   12.6870    5.7040 C   0  0  0  0  0  0  0  0  0  0  0  0
   24.7630   12.8080    4.5290 N   0  0  0  0  0  0  0  0  0  0  0  0
   24.6460   14.2140    3.6040 S   0  0  0  0  0  6  0  0  0  0  0  0
   23.2810   14.6690    3.7890 O   0  0  0  0  0  0  0  0  0  0  0  0
   25.0960   13.7830    2.2900 O   0  0  0  0  0  0  0  0  0  0  0  0
   25.7230   15.4230    4.1850 C   0  0  0  0  0  0  0  0  0  0  0  0
   26.6080   15.9420    3.3140 C   0  0  0  0  0  0  0  0  0  0  0  0
   27.5460   17.0080    3.7590 C   0  0  0  0  0  0  0  0  0  0  0  0
   28.3610   17.4800    2.9780 O   0  0  0  0  0  0  0  0  0  0  0  0
   27.4510   17.4200    5.0670 N   0  0  0  0  0  0  0  0  0  0  0  0
   26.5220   16.8690    5.9250 C   0  0  0  0  0  0  0  0  0  0  0  0
   26.2560   17.1160    7.2430 C   0  0  0  0  0  0  0  0  0  0  0  0
   25.2020   16.2280    7.5690 C   0  0  0  0  0  0  0  0  0  0  0  0
   24.5540   16.0830    8.8890 C   0  0  0  0  0  0  0  0  0  0  0  0
   23.5420   15.4030    9.0110 O   0  0  0  0  0  0  0  0  0  0  0  0
   25.2020   16.7890    9.8850 N   0  0  0  0  0  0  0  0  0  0  0  0
   24.8760   16.8580   11.2530 C   0  0  0  0  0  0  0  0  0  0  0  0
   23.6970   16.2280   11.6610 C   0  0  0  0  0  0  0  0  0  0  0  0
   23.3060   16.2460   13.0000 C   0  0  0  0  0  0  0  0  0  0  0  0
   24.0900   16.8980   13.9490 C   0  0  0  0  0  0  0  0  0  0  0  0
   25.2700   17.5490   13.5650 C   0  0  0  0  0  0  0  0  0  0  0  0
   26.1640   18.2460   14.5780 C   0  0  2  0  0  0  0  0  0  0  0  0
   25.5970   18.0600   15.9900 C   0  0  0  0  0  0  0  0  0  0  0  0
   26.5250   18.7020   17.0080 C   0  0  0  0  0  0  0  0  0  0  0  0
   26.7390   20.1620   16.7000 C   0  0  0  0  0  0  0  0  0  0  0  0
   27.0410   20.9780   17.5660 O   0  0  0  0  0  0  0  0  0  0  0  0
   26.6440   20.5290   15.3820 N   0  0  0  0  0  0  0  0  0  0  0  0
   26.3930   19.7300   14.2900 C   0  0  0  0  0  0  0  0  0  0  0  0
   26.4200   20.2180   13.1630 O   0  0  0  0  0  0  0  0  0  0  0  0
   25.6540   17.5150   12.2100 C   0  0  0  0  0  0  0  0  0  0  0  0
   24.8370   15.4930    6.4990 N   0  0  0  0  0  0  0  0  0  0  0  0
   25.6530   15.8770    5.4910 N   0  0  0  0  0  0  0  0  0  0  0  0
   24.0400   11.6790    4.3150 C   0  0  0  0  0  0  0  0  0  0  0  0
   24.2020   10.8320    5.3110 N   0  0  0  0  0  0  0  0  0  0  0  0
   24.7464    9.1845    8.6779 H   0  0  0  0  0  0  0  0  0  0  0  0
   23.8606    9.4192    7.1330 H   0  0  0  0  0  0  0  0  0  0  0  0
   25.4708    8.6230    7.1330 H   0  0  0  0  0  0  0  0  0  0  0  0
   25.2671   11.3919    8.2866 H   0  0  0  0  0  0  0  0  0  0  0  0
   26.6081   10.5874    7.3598 H   0  0  0  0  0  0  0  0  0  0  0  0
   26.1310   13.4155    6.1668 H   0  0  0  0  0  0  0  0  0  0  0  0
   26.6379   15.5792    2.2760 H   0  0  0  0  0  0  0  0  0  0  0  0
   28.0855   18.1540    5.4129 H   0  0  0  0  0  0  0  0  0  0  0  0
   26.7508   17.8431    7.9037 H   0  0  0  0  0  0  0  0  0  0  0  0
   26.0258   17.3322    9.5898 H   0  0  0  0  0  0  0  0  0  0  0  0
   23.0706   15.7124   10.9182 H   0  0  0  0  0  0  0  0  0  0  0  0
   22.3765   15.7442   13.3071 H   0  0  0  0  0  0  0  0  0  0  0  0
   23.7814   16.9019   15.0048 H   0  0  0  0  0  0  0  0  0  0  0  0
   27.1516   17.7684   14.4968 H   0  0  0  0  0  0  0  0  0  0  0  0
   24.6058   18.5332   16.0504 H   0  0  0  0  0  0  0  0  0  0  0  0
   25.5093   16.9851   16.2067 H   0  0  0  0  0  0  0  0  0  0  0  0
   26.0805   18.6073   18.0097 H   0  0  0  0  0  0  0  0  0  0  0  0
   27.4974   18.1895   16.9673 H   0  0  0  0  0  0  0  0  0  0  0  0
   26.7776   21.5309   15.1841 H   0  0  0  0  0  0  0  0  0  0  0  0
   26.5834   18.0148   11.8996 H   0  0  0  0  0  0  0  0  0  0  0  0
   23.4076   11.4970    3.4336 H   0  0  0  0  0  0  0  0  0  0  0  0
  1  2  1  0
  2  3  1  0
  3  4  2  0
  4  5  1  0
  5  6  1  0
  6  7  2  0
  6  8  2  0
  6  9  1  0
  9 10  2  0
 10 11  1  0
 11 12  2  0
 11 13  1  0
 13 14  1  0
 14 15  2  0
 15 16  1  0
 16 17  1  0
 17 18  2  0
 17 19  1  0
 19 20  1  0
 20 21  2  0
 21 22  1  0
 22 23  2  0
 23 24  1  0
 24 25  1  0
 25 26  1  0
 26 27  1  0
 27 28  1  0
 28 29  2  0
 28 30  1  0
 30 31  1  0
 31 32  2  0
 24 33  2  0
 16 34  2  0
 34 35  1  0
  5 36  1  0
 36 37  2  0
 37  3  1  0
 35  9  1  0
 35 14  1  0
 33 20  1  0
 31 25  1  0
  1 38  1  0
  1 39  1  0
  1 40  1  0
  2 41  1  0
  2 42  1  0
  4 43  1  0
 10 44  1  0
 13 45  1  0
 15 46  1  0
 19 47  1  0
 21 48  1  0
 22 49  1  0
 23 50  1  0
 25 51  1  1
 26 52  1  0
 26 53  1  0
 27 54  1  0
 27 55  1  0
 30 56  1  0
 33 57  1  0
 36 58  1  0
M  END
>  <meeko>  (505) 
{"is_sidechain": [true], "free_energy": -12.3, "intermolecular_energy": 0.0, "internal_energy": -12.3, "cluster_size": 7, "cluster_id": 1, "rank_in_cluster": 1}

>  <_RMSD_MCS_to_ref>  (505) 
1.0581704139693187

$$$$
ligand
     RDKit          3D

 61 66  0  0  0  0  0  0  0  0999 V2000
   24.8540    9.4020    7.6050 C   0  0  0  0  0  0  0  0  0  0  0  0
   25.5230   10.7550    7.4270 C   0  0  0  0  0  0  0  0  0  0  0  0
   25.3740   11.2760    6.0410 C   0  0  0  0  0  0  0  0  0  0  0  0
   25.9820   12.3680    5.4550 C   0  0  0  0  0  0  0  0  0  0  0  0
   25.5050   12.3680    4.1770 N   0  0  0  0  0  0  0  0  0  0  0  0
   25.8670   13.4700    2.9550 S   0  0  0  0  0  6  0  0  0  0  0  0
   25.2900   12.9310    1.7370 O   0  0  0  0  0  0  0  0  0  0  0  0
   27.3050   13.6470    3.0680 O   0  0  0  0  0  0  0  0  0  0  0  0
   25.1800   14.9050    3.2970 O   0  0  0  0  0  0  0  0  0  0  0  0
   25.3650   15.4440    4.5450 C   0  0  0  0  0  0  0  0  0  0  0  0
   26.2170   16.4840    4.6340 N   0  0  0  0  0  0  0  0  0  0  0  0
   26.3530   17.0560    5.8440 C   0  0  0  0  0  0  0  0  0  0  0  0
   25.6670   16.6350    6.9690 C   0  0  0  0  0  0  0  0  0  0  0  0
   24.7680   15.5510    6.8710 C   0  0  0  0  0  0  0  0  0  0  0  0
   24.0040   15.0330    7.9450 C   0  0  0  0  0  0  0  0  0  0  0  0
   24.0940   15.5370    9.3260 C   0  0  0  0  0  0  0  0  0  0  0  0
   22.9920   15.4290   10.2140 C   0  0  0  0  0  0  0  0  0  0  0  0
   23.0620   15.9060   11.5260 C   0  0  0  0  0  0  0  0  0  0  0  0
   24.2450   16.4940   11.9230 C   0  0  0  0  0  0  0  0  0  0  0  0
   25.3390   16.6350   11.0730 C   0  0  0  0  0  0  0  0  0  0  0  0
   25.2770   16.1640    9.7720 C   0  0  0  0  0  0  0  0  0  0  0  0
   26.4540   17.3330   11.7790 C   0  0  0  0  0  0  0  0  0  0  0  0
   25.9030   17.5290   13.1160 N   0  0  0  0  0  0  0  0  0  0  0  0
   26.5320   18.3540   14.1440 C   0  0  2  0  0  0  0  0  0  0  0  0
   26.1720   17.8490   15.5420 C   0  0  0  0  0  0  0  0  0  0  0  0
   26.9390   18.6410   16.5890 C   0  0  0  0  0  0  0  0  0  0  0  0
   26.6800   20.1220   16.4510 C   0  0  0  0  0  0  0  0  0  0  0  0
   26.6770   20.8820   17.4150 O   0  0  0  0  0  0  0  0  0  0  0  0
   26.4790   20.5940   15.1800 N   0  0  0  0  0  0  0  0  0  0  0  0
   26.2220   19.8560   14.0460 C   0  0  0  0  0  0  0  0  0  0  0  0
   25.8040   20.4130   13.0340 O   0  0  0  0  0  0  0  0  0  0  0  0
   24.5920   17.0930   13.2160 C   0  0  0  0  0  0  0  0  0  0  0  0
   23.8390   17.1980   14.1640 O   0  0  0  0  0  0  0  0  0  0  0  0
   23.1110   14.0190    7.8020 N   0  0  0  0  0  0  0  0  0  0  0  0
   22.9750   13.4670    6.5820 C   0  0  0  0  0  0  0  0  0  0  0  0
   23.6860   13.8820    5.4740 C   0  0  0  0  0  0  0  0  0  0  0  0
   24.5980   14.9440    5.6100 C   0  0  0  0  0  0  0  0  0  0  0  0
   24.6320   11.3400    4.0230 C   0  0  0  0  0  0  0  0  0  0  0  0
   24.5340   10.6480    5.1400 N   0  0  0  0  0  0  0  0  0  0  0  0
   24.7464    9.1845    8.6779 H   0  0  0  0  0  0  0  0  0  0  0  0
   23.8606    9.4192    7.1330 H   0  0  0  0  0  0  0  0  0  0  0  0
   25.4708    8.6230    7.1330 H   0  0  0  0  0  0  0  0  0  0  0  0
   25.0662   11.4711    8.1260 H   0  0  0  0  0  0  0  0  0  0  0  0
   26.5973   10.6304    7.6280 H   0  0  0  0  0  0  0  0  0  0  0  0
   26.6887   13.0755    5.9133 H   0  0  0  0  0  0  0  0  0  0  0  0
   27.0468   17.9038    5.9441 H   0  0  0  0  0  0  0  0  0  0  0  0
   25.8209   17.1414    7.9333 H   0  0  0  0  0  0  0  0  0  0  0  0
   22.0618   14.9593    9.8617 H   0  0  0  0  0  0  0  0  0  0  0  0
   22.2084   15.8161   12.2140 H   0  0  0  0  0  0  0  0  0  0  0  0
   26.1375   16.2770    9.0961 H   0  0  0  0  0  0  0  0  0  0  0  0
   27.3590   16.7085   11.8090 H   0  0  0  0  0  0  0  0  0  0  0  0
   26.7670   18.2677   11.2908 H   0  0  0  0  0  0  0  0  0  0  0  0
   27.6120   18.2516   13.9617 H   0  0  0  0  0  0  0  0  0  0  0  0
   25.0919   17.9739   15.7085 H   0  0  0  0  0  0  0  0  0  0  0  0
   26.4390   16.7850   15.6238 H   0  0  0  0  0  0  0  0  0  0  0  0
   26.6224   18.3131   17.5901 H   0  0  0  0  0  0  0  0  0  0  0  0
   28.0143   18.4603   16.4439 H   0  0  0  0  0  0  0  0  0  0  0  0
   26.5254   21.6159   15.0594 H   0  0  0  0  0  0  0  0  0  0  0  0
   22.2588   12.6408    6.4614 H   0  0  0  0  0  0  0  0  0  0  0  0
   23.5417   13.3902    4.5007 H   0  0  0  0  0  0  0  0  0  0  0  0
   24.0836   11.1162    3.0961 H   0  0  0  0  0  0  0  0  0  0  0  0
  1  2  1  0
  2  3  1  0
  3  4  2  0
  4  5  1  0
  5  6  1  0
  6  7  2  0
  6  8  2  0
  6  9  1  0
  9 10  1  0
 10 11  2  0
 11 12  1  0
 12 13  2  0
 13 14  1  0
 14 15  2  0
 15 16  1  0
 16 17  2  0
 17 18  1  0
 18 19  2  0
 19 20  1  0
 20 21  2  0
 20 22  1  0
 22 23  1  0
 23 24  1  0
 24 25  1  0
 25 26  1  0
 26 27  1  0
 27 28  2  0
 27 29  1  0
 29 30  1  0
 30 31  2  0
 23 32  1  0
 32 33  2  0
 15 34  1  0
 34 35  2  0
 35 36  1  0
 36 37  2  0
  5 38  1  0
 38 39  2  0
 39  3  1  0
 37 10  1  0
 37 14  1  0
 21 16  1  0
 30 24  1  0
 32 19  1  0
  1 40  1  0
  1 41  1  0
  1 42  1  0
  2 43  1  0
  2 44  1  0
  4 45  1  0
 12 46  1  0
 13 47  1  0
 17 48  1  0
 18 49  1  0
 21 50  1  0
 22 51  1  0
 22 52  1  0
 24 53  1  6
 25 54  1  0
 25 55  1  0
 26 56  1  0
 26 57  1  0
 29 58  1  0
 35 59  1  0
 36 60  1  0
 38 61  1  0
M  END
>  <meeko>  (506) 
{"is_sidechain": [true], "free_energy": -12.3, "intermolecular_energy": 0.0, "internal_energy": -12.3, "cluster_size": 15, "cluster_id": 1, "rank_in_cluster": 1}

>  <_RMSD_MCS_to_ref>  (506) 
1.010335147914349

$$$$
ligand
     RDKit          3D

 60 65  0  0  0  0  0  0  0  0999 V2000
   24.8710    9.6160    7.7820 C   0  0  0  0  0  0  0  0  0  0  0  0
   25.4240   10.9650    7.3490 C   0  0  0  0  0  0  0  0  0  0  0  0
   26.8200   11.1780    7.8200 C   0  0  0  0  0  0  0  0  0  0  0  0
   27.2820   12.0380    8.7950 C   0  0  0  0  0  0  0  0  0  0  0  0
   28.6280   11.8140    8.8300 N   0  0  0  0  0  0  0  0  0  0  0  0
   29.7630   12.7810    9.6180 S   0  0  0  0  0  6  0  0  0  0  0  0
   29.4040   12.6920   11.0220 O   0  0  0  0  0  0  0  0  0  0  0  0
   31.0470   12.3120    9.1310 O   0  0  0  0  0  0  0  0  0  0  0  0
   29.5060   14.2940    9.0540 O   0  0  0  0  0  0  0  0  0  0  0  0
   28.9030   14.4230    7.8340 C   0  0  0  0  0  0  0  0  0  0  0  0
   27.5840   14.9260    7.6980 C   0  0  0  0  0  0  0  0  0  0  0  0
   26.8260   15.3610    8.8850 C   0  0  0  0  0  0  0  0  0  0  0  0
   25.5540   14.7980    9.1610 C   0  0  0  0  0  0  0  0  0  0  0  0
   24.8130   15.1870   10.2790 C   0  0  0  0  0  0  0  0  0  0  0  0
   25.3700   16.1410   11.1070 C   0  0  0  0  0  0  0  0  0  0  0  0
   26.6130   16.7170   10.8610 C   0  0  0  0  0  0  0  0  0  0  0  0
   27.3520   16.3390    9.7510 C   0  0  0  0  0  0  0  0  0  0  0  0
   26.9300   17.7140   11.9260 C   0  0  0  0  0  0  0  0  0  0  0  0
   25.8210   17.5490   12.8560 N   0  0  0  0  0  0  0  0  0  0  0  0
   25.6380   18.4470   13.9910 C   0  0  2  0  0  0  0  0  0  0  0  0
   26.2300   19.8390   13.7710 C   0  0  0  0  0  0  0  0  0  0  0  0
   25.9330   20.7100   14.9820 C   0  0  0  0  0  0  0  0  0  0  0  0
   26.4610   20.0830   16.2510 C   0  0  0  0  0  0  0  0  0  0  0  0
   26.7200   20.7480   17.2510 O   0  0  0  0  0  0  0  0  0  0  0  0
   26.5610   18.7150   16.2680 N   0  0  0  0  0  0  0  0  0  0  0  0
   26.1860   17.8270   15.2850 C   0  0  0  0  0  0  0  0  0  0  0  0
   26.2030   16.6170   15.5030 O   0  0  0  0  0  0  0  0  0  0  0  0
   24.8360   16.7160   12.3460 C   0  0  0  0  0  0  0  0  0  0  0  0
   23.7320   16.4860   12.7960 O   0  0  0  0  0  0  0  0  0  0  0  0
   26.9610   15.0390    6.4020 C   0  0  0  0  0  0  0  0  0  0  0  0
   27.5710   14.6610    5.1800 C   0  0  0  0  0  0  0  0  0  0  0  0
   28.8700   14.1490    5.3220 C   0  0  0  0  0  0  0  0  0  0  0  0
   29.7250   13.6930    4.3930 N   0  0  0  0  0  0  0  0  0  0  0  0
   30.8230   13.3300    5.0830 N   0  0  0  0  0  0  0  0  0  0  0  0
   30.7260   13.5110    6.4340 C   0  0  0  0  0  0  0  0  0  0  0  0
   29.4820   14.0460    6.6220 C   0  0  0  0  0  0  0  0  0  0  0  0
   28.9540   10.9140    7.8660 C   0  0  0  0  0  0  0  0  0  0  0  0
   27.8720   10.4860    7.2500 N   0  0  0  0  0  0  0  0  0  0  0  0
   24.8497    9.5640    8.8806 H   0  0  0  0  0  0  0  0  0  0  0  0
   23.8507    9.4948    7.3893 H   0  0  0  0  0  0  0  0  0  0  0  0
   25.5127    8.8135    7.3893 H   0  0  0  0  0  0  0  0  0  0  0  0
   25.4089   11.0179    6.2504 H   0  0  0  0  0  0  0  0  0  0  0  0
   24.7936   11.7477    7.7963 H   0  0  0  0  0  0  0  0  0  0  0  0
   26.6986   12.7433    9.4050 H   0  0  0  0  0  0  0  0  0  0  0  0
   25.1422   14.0387    8.4799 H   0  0  0  0  0  0  0  0  0  0  0  0
   23.8257   14.7510   10.4912 H   0  0  0  0  0  0  0  0  0  0  0  0
   28.3326   16.7951    9.5500 H   0  0  0  0  0  0  0  0  0  0  0  0
   27.8912   17.4861   12.4098 H   0  0  0  0  0  0  0  0  0  0  0  0
   27.0337   18.7413   11.5467 H   0  0  0  0  0  0  0  0  0  0  0  0
   24.5509   18.5827   14.0904 H   0  0  0  0  0  0  0  0  0  0  0  0
   27.3186   19.7578   13.6351 H   0  0  0  0  0  0  0  0  0  0  0  0
   25.7827   20.2915   12.8737 H   0  0  0  0  0  0  0  0  0  0  0  0
   26.4086   21.6920   14.8426 H   0  0  0  0  0  0  0  0  0  0  0  0
   24.8420   20.8160   15.0746 H   0  0  0  0  0  0  0  0  0  0  0  0
   26.9660   18.3018   17.1201 H   0  0  0  0  0  0  0  0  0  0  0  0
   25.9405   15.4474    6.3592 H   0  0  0  0  0  0  0  0  0  0  0  0
   27.0703   14.7602    4.2056 H   0  0  0  0  0  0  0  0  0  0  0  0
   31.6656   12.9478    4.6303 H   0  0  0  0  0  0  0  0  0  0  0  0
   31.4807   13.2781    7.1997 H   0  0  0  0  0  0  0  0  0  0  0  0
   29.9785   10.5884    7.6328 H   0  0  0  0  0  0  0  0  0  0  0  0
  1  2  1  0
  2  3  1  0
  3  4  2  0
  4  5  1  0
  5  6  1  0
  6  7  2  0
  6  8  2  0
  6  9  1  0
  9 10  1  0
 10 11  2  0
 11 12  1  0
 12 13  2  0
 13 14  1  0
 14 15  2  0
 15 16  1  0
 16 17  2  0
 16 18  1  0
 18 19  1  0
 19 20  1  0
 20 21  1  0
 21 22  1  0
 22 23  1  0
 23 24  2  0
 23 25  1  0
 25 26  1  0
 26 27  2  0
 19 28  1  0
 28 29  2  0
 11 30  1  0
 30 31  2  0
 31 32  1  0
 32 33  2  0
 33 34  1  0
 34 35  1  0
 35 36  2  0
  5 37  1  0
 37 38  2  0
 38  3  1  0
 36 10  1  0
 17 12  1  0
 26 20  1  0
 36 32  1  0
 28 15  1  0
  1 39  1  0
  1 40  1  0
  1 41  1  0
  2 42  1  0
  2 43  1  0
  4 44  1  0
 13 45  1  0
 14 46  1  0
 17 47  1  0
 18 48  1  0
 18 49  1  0
 20 50  1  1
 21 51  1  0
 21 52  1  0
 22 53  1  0
 22 54  1  0
 25 55  1  0
 30 56  1  0
 31 57  1  0
 34 58  1  0
 35 59  1  0
 37 60  1  0
M  END
>  <meeko>  (507) 
{"is_sidechain": [true], "free_energy": -12.3, "intermolecular_energy": 0.0, "internal_energy": -12.3, "cluster_size": 7, "cluster_id": 1, "rank_in_cluster": 1}

>  <_RMSD_MCS_to_ref>  (507) 
1.95869201791722

$$$$
ligand
     RDKit          3D

 66 71  0  0  0  0  0  0  0  0999 V2000
   24.8710    9.6160    7.7820 C   0  0  0  0  0  0  0  0  0  0  0  0
   25.4240   10.9650    7.3490 C   0  0  0  0  0  0  0  0  0  0  0  0
   26.6250   11.3580    8.1350 C   0  0  0  0  0  0  0  0  0  0  0  0
   27.8510   11.8060    7.6830 C   0  0  0  0  0  0  0  0  0  0  0  0
   28.5820   11.9880    8.8230 N   0  0  0  0  0  0  0  0  0  0  0  0
   30.0710   12.7710    8.9170 S   0  0  0  0  0  6  0  0  0  0  0  0
   30.7990   12.3200    7.7450 O   0  0  0  0  0  0  0  0  0  0  0  0
   30.5530   12.4950   10.2570 O   0  0  0  0  0  0  0  0  0  0  0  0
   29.7390   14.3670    8.7910 O   0  0  0  0  0  0  0  0  0  0  0  0
   28.5340   14.7980    8.2930 C   0  0  0  0  0  0  0  0  0  0  0  0
   27.3790   14.8520    9.0810 C   0  0  0  0  0  0  0  0  0  0  0  0
   26.1690   15.3270    8.5560 C   0  0  0  0  0  0  0  0  0  0  0  0
   24.9850   15.4640    9.4100 C   0  0  0  0  0  0  0  0  0  0  0  0
   23.7150   15.0340    8.9740 C   0  0  0  0  0  0  0  0  0  0  0  0
   22.5680   15.1720    9.7810 C   0  0  0  0  0  0  0  0  0  0  0  0
   22.6580   15.7450   11.0470 C   0  0  0  0  0  0  0  0  0  0  0  0
   23.9060   16.1620   11.4660 C   0  0  0  0  0  0  0  0  0  0  0  0
   25.0530   16.0320   10.6800 C   0  0  0  0  0  0  0  0  0  0  0  0
   26.2250   16.6130   11.4050 C   0  0  0  0  0  0  0  0  0  0  0  0
   25.6570   16.9820   12.6950 N   0  0  0  0  0  0  0  0  0  0  0  0
   26.3610   17.8030   13.6720 C   0  0  1  0  0  0  0  0  0  0  0  0
   25.8430   19.2380   13.7070 C   0  0  0  0  0  0  0  0  0  0  0  0
   26.6790   20.0530   14.6800 C   0  0  0  0  0  0  0  0  0  0  0  0
   26.6850   19.4250   16.0540 C   0  0  0  0  0  0  0  0  0  0  0  0
   26.7210   20.0950   17.0830 O   0  0  0  0  0  0  0  0  0  0  0  0
   26.6740   18.0540   16.1030 N   0  0  0  0  0  0  0  0  0  0  0  0
   26.2870   17.2080   15.0890 C   0  0  0  0  0  0  0  0  0  0  0  0
   25.9170   16.0640   15.3460 O   0  0  0  0  0  0  0  0  0  0  0  0
   24.2830   16.8050   12.7300 C   0  0  0  0  0  0  0  0  0  0  0  0
   23.5110   17.1070   13.6190 O   0  0  0  0  0  0  0  0  0  0  0  0
   26.1270   15.6900    7.2030 C   0  0  0  0  0  0  0  0  0  0  0  0
   27.2650   15.5890    6.3890 C   0  0  0  0  0  0  0  0  0  0  0  0
   28.4870   15.1560    6.9360 C   0  0  0  0  0  0  0  0  0  0  0  0
   29.7150   15.0250    6.0580 C   0  0  0  0  0  0  0  0  0  0  0  0
   29.6400   15.7830    4.8040 N   0  0  0  0  0  0  0  0  0  0  0  0
   28.3760   15.5050    4.1200 C   0  0  0  0  0  0  0  0  0  0  0  0
   27.1910   16.0190    4.9430 C   0  0  0  0  0  0  0  0  0  0  0  0
   27.7950   11.7390    9.9000 C   0  0  0  0  0  0  0  0  0  0  0  0
   26.6040   11.3280    9.5160 N   0  0  0  0  0  0  0  0  0  0  0  0
   24.8497    9.5640    8.8806 H   0  0  0  0  0  0  0  0  0  0  0  0
   23.8507    9.4948    7.3893 H   0  0  0  0  0  0  0  0  0  0  0  0
   25.5127    8.8135    7.3893 H   0  0  0  0  0  0  0  0  0  0  0  0
   25.6989   10.9104    6.2853 H   0  0  0  0  0  0  0  0  0  0  0  0
   24.6443   11.7213    7.5223 H   0  0  0  0  0  0  0  0  0  0  0  0
   28.1666   11.9771    6.6432 H   0  0  0  0  0  0  0  0  0  0  0  0
   27.4210   14.5168   10.1278 H   0  0  0  0  0  0  0  0  0  0  0  0
   23.6169   14.5787    7.9775 H   0  0  0  0  0  0  0  0  0  0  0  0
   21.5935   14.8242    9.4078 H   0  0  0  0  0  0  0  0  0  0  0  0
   21.7710   15.8607   11.6872 H   0  0  0  0  0  0  0  0  0  0  0  0
   27.0262   15.8687   11.5233 H   0  0  0  0  0  0  0  0  0  0  0  0
   26.6886   17.4586   10.8757 H   0  0  0  0  0  0  0  0  0  0  0  0
   27.4104   17.8147   13.3423 H   0  0  0  0  0  0  0  0  0  0  0  0
   25.9157   19.6790   12.7019 H   0  0  0  0  0  0  0  0  0  0  0  0
   24.7924   19.2415   14.0329 H   0  0  0  0  0  0  0  0  0  0  0  0
   27.7121   20.1085   14.3063 H   0  0  0  0  0  0  0  0  0  0  0  0
   26.2404   21.0587   14.7586 H   0  0  0  0  0  0  0  0  0  0  0  0
   26.9849   17.6164   16.9821 H   0  0  0  0  0  0  0  0  0  0  0  0
   25.1853   16.0606    6.7718 H   0  0  0  0  0  0  0  0  0  0  0  0
   30.5857   15.3836    6.6266 H   0  0  0  0  0  0  0  0  0  0  0  0
   29.7950   13.9632    5.7819 H   0  0  0  0  0  0  0  0  0  0  0  0
   29.7004   16.7902    5.0111 H   0  0  0  0  0  0  0  0  0  0  0  0
   28.3784   16.0041    3.1397 H   0  0  0  0  0  0  0  0  0  0  0  0
   28.2738   14.4170    3.9939 H   0  0  0  0  0  0  0  0  0  0  0  0
   27.1821   17.1182    4.9013 H   0  0  0  0  0  0  0  0  0  0  0  0
   26.2732   15.5920    4.5125 H   0  0  0  0  0  0  0  0  0  0  0  0
   28.1079   11.8630   10.9472 H   0  0  0  0  0  0  0  0  0  0  0  0
  1  2  1  0
  2  3  1  0
  3  4  2  0
  4  5  1  0
  5  6  1  0
  6  7  2  0
  6  8  2  0
  6  9  1  0
  9 10  1  0
 10 11  2  0
 11 12  1  0
 12 13  1  0
 13 14  2  0
 14 15  1  0
 15 16  2  0
 16 17  1  0
 17 18  2  0
 18 19  1  0
 19 20  1  0
 20 21  1  0
 21 22  1  0
 22 23  1  0
 23 24  1  0
 24 25  2  0
 24 26  1  0
 26 27  1  0
 27 28  2  0
 20 29  1  0
 29 30  2  0
 12 31  2  0
 31 32  1  0
 32 33  2  0
 33 34  1  0
 34 35  1  0
 35 36  1  0
 36 37  1  0
  5 38  1  0
 38 39  2  0
 39  3  1  0
 33 10  1  0
 18 13  1  0
 27 21  1  0
 37 32  1  0
 29 17  1  0
  1 40  1  0
  1 41  1  0
  1 42  1  0
  2 43  1  0
  2 44  1  0
  4 45  1  0
 11 46  1  0
 14 47  1  0
 15 48  1  0
 16 49  1  0
 19 50  1  0
 19 51  1  0
 21 52  1  6
 22 53  1  0
 22 54  1  0
 23 55  1  0
 23 56  1  0
 26 57  1  0
 31 58  1  0
 34 59  1  0
 34 60  1  0
 35 61  1  0
 36 62  1  0
 36 63  1  0
 37 64  1  0
 37 65  1  0
 38 66  1  0
M  END
>  <meeko>  (508) 
{"is_sidechain": [true], "free_energy": -12.29, "intermolecular_energy": 0.0, "internal_energy": -12.29, "cluster_size": 6, "cluster_id": 1, "rank_in_cluster": 1}

>  <_RMSD_MCS_to_ref>  (508) 
1.9640056856672625

$$$$
ligand
     RDKit          3D

 53 57  0  0  0  0  0  0  0  0999 V2000
   24.8710    9.6160    7.7820 C   0  0  0  0  0  0  0  0  0  0  0  0
   25.4240   10.9650    7.3490 C   0  0  0  0  0  0  0  0  0  0  0  0
   26.8890   11.0740    7.5900 C   0  0  0  0  0  0  0  0  0  0  0  0
   27.5780   12.0130    8.3310 C   0  0  0  0  0  0  0  0  0  0  0  0
   28.8870   11.6360    8.2100 N   0  0  0  0  0  0  0  0  0  0  0  0
   30.2030   12.4290    8.9030 S   0  0  0  0  0  6  0  0  0  0  0  0
   30.0190   12.2050   10.3280 O   0  0  0  0  0  0  0  0  0  0  0  0
   31.3860   11.9200    8.2320 O   0  0  0  0  0  0  0  0  0  0  0  0
   30.0650   14.0290    8.6480 O   0  0  0  0  0  0  0  0  0  0  0  0
   28.9610   14.5250    8.0040 C   0  0  0  0  0  0  0  0  0  0  0  0
   28.8790   14.4450    6.6570 N   0  0  0  0  0  0  0  0  0  0  0  0
   27.7670   14.9010    6.0280 C   0  0  0  0  0  0  0  0  0  0  0  0
   26.6650   15.4500    6.6600 C   0  0  0  0  0  0  0  0  0  0  0  0
   26.7850   15.4940    8.0390 C   0  0  0  0  0  0  0  0  0  0  0  0
   25.8450   15.9720    8.8980 O   0  0  0  0  0  0  0  0  0  0  0  0
   26.3380   15.8360   10.1680 C   0  0  0  0  0  0  0  0  0  0  0  0
   25.4720   16.2950   11.2530 C   0  0  0  0  0  0  0  0  0  0  0  0
   24.1180   15.9470   11.2990 C   0  0  0  0  0  0  0  0  0  0  0  0
   23.3090   16.3900   12.3410 C   0  0  0  0  0  0  0  0  0  0  0  0
   23.8430   17.1890   13.3550 C   0  0  0  0  0  0  0  0  0  0  0  0
   25.1960   17.5600   13.3500 C   0  0  0  0  0  0  0  0  0  0  0  0
   25.7470   18.3920   14.3860 N   0  0  0  0  0  0  0  0  0  0  0  0
   26.3420   17.7720   15.5680 C   0  0  0  0  0  0  0  0  0  0  0  0
   26.0660   18.5940   16.8090 C   0  0  0  0  0  0  0  0  0  0  0  0
   26.5200   20.0010   16.5790 C   0  0  0  0  0  0  0  0  0  0  0  0
   26.8100   20.7600   17.4990 O   0  0  0  0  0  0  0  0  0  0  0  0
   26.5060   20.4230   15.2790 N   0  0  0  0  0  0  0  0  0  0  0  0
   25.9370   19.7690   14.2120 C   0  0  0  0  0  0  0  0  0  0  0  0
   25.6580   20.4290   13.2150 O   0  0  0  0  0  0  0  0  0  0  0  0
   25.9880   17.1050   12.2820 C   0  0  0  0  0  0  0  0  0  0  0  0
   27.5980   15.2690   10.1120 C   0  0  0  0  0  0  0  0  0  0  0  0
   27.8940   15.0470    8.7410 C   0  0  0  0  0  0  0  0  0  0  0  0
   28.9630   10.5250    7.4330 C   0  0  0  0  0  0  0  0  0  0  0  0
   27.7610   10.1530    7.0400 N   0  0  0  0  0  0  0  0  0  0  0  0
   24.8497    9.5640    8.8806 H   0  0  0  0  0  0  0  0  0  0  0  0
   23.8507    9.4948    7.3893 H   0  0  0  0  0  0  0  0  0  0  0  0
   25.5127    8.8135    7.3893 H   0  0  0  0  0  0  0  0  0  0  0  0
   25.2305   11.0992    6.2745 H   0  0  0  0  0  0  0  0  0  0  0  0
   24.9242   11.7427    7.9451 H   0  0  0  0  0  0  0  0  0  0  0  0
   27.1686   12.8674    8.8899 H   0  0  0  0  0  0  0  0  0  0  0  0
   27.7390   14.8288    4.9307 H   0  0  0  0  0  0  0  0  0  0  0  0
   25.7796   15.8159    6.1195 H   0  0  0  0  0  0  0  0  0  0  0  0
   23.6892   15.3180   10.5050 H   0  0  0  0  0  0  0  0  0  0  0  0
   22.2455   16.1101   12.3664 H   0  0  0  0  0  0  0  0  0  0  0  0
   23.1913   17.5332   14.1715 H   0  0  0  0  0  0  0  0  0  0  0  0
   25.9154   16.7667   15.7002 H   0  0  0  0  0  0  0  0  0  0  0  0
   27.4306   17.7126   15.4220 H   0  0  0  0  0  0  0  0  0  0  0  0
   24.9870   18.5860   17.0230 H   0  0  0  0  0  0  0  0  0  0  0  0
   26.6095   18.1657   17.6641 H   0  0  0  0  0  0  0  0  0  0  0  0
   26.9683   21.3214   15.0786 H   0  0  0  0  0  0  0  0  0  0  0  0
   27.0493   17.3922   12.2490 H   0  0  0  0  0  0  0  0  0  0  0  0
   28.2481   15.0343   10.9677 H   0  0  0  0  0  0  0  0  0  0  0  0
   29.8971   10.0077    7.1685 H   0  0  0  0  0  0  0  0  0  0  0  0
  1  2  1  0
  2  3  1  0
  3  4  2  0
  4  5  1  0
  5  6  1  0
  6  7  2  0
  6  8  2  0
  6  9  1  0
  9 10  1  0
 10 11  2  0
 11 12  1  0
 12 13  2  0
 13 14  1  0
 14 15  1  0
 15 16  1  0
 16 17  1  0
 17 18  2  0
 18 19  1  0
 19 20  2  0
 20 21  1  0
 21 22  1  0
 22 23  1  0
 23 24  1  0
 24 25  1  0
 25 26  2  0
 25 27  1  0
 27 28  1  0
 28 29  2  0
 21 30  2  0
 16 31  2  0
 31 32  1  0
  5 33  1  0
 33 34  2  0
 34  3  1  0
 32 10  1  0
 32 14  2  0
 30 17  1  0
 28 22  1  0
  1 35  1  0
  1 36  1  0
  1 37  1  0
  2 38  1  0
  2 39  1  0
  4 40  1  0
 12 41  1  0
 13 42  1  0
 18 43  1  0
 19 44  1  0
 20 45  1  0
 23 46  1  0
 23 47  1  0
 24 48  1  0
 24 49  1  0
 27 50  1  0
 30 51  1  0
 31 52  1  0
 33 53  1  0
M  END
>  <meeko>  (509) 
{"is_sidechain": [true], "free_energy": -12.29, "intermolecular_energy": 0.0, "internal_energy": -12.29, "cluster_size": 19, "cluster_id": 1, "rank_in_cluster": 1}

>  <_RMSD_MCS_to_ref>  (509) 
0.7818514085169896

$$$$
ligand
     RDKit          3D

 59 63  0  0  0  0  0  0  0  0999 V2000
   24.8540    9.4020    7.6050 C   0  0  0  0  0  0  0  0  0  0  0  0
   25.5230   10.7550    7.4270 C   0  0  0  0  0  0  0  0  0  0  0  0
   25.3470   11.2930    6.0490 C   0  0  0  0  0  0  0  0  0  0  0  0
   24.2380   11.8920    5.4850 C   0  0  0  0  0  0  0  0  0  0  0  0
   24.6160   12.1550    4.1980 N   0  0  0  0  0  0  0  0  0  0  0  0
   23.7660   13.0850    3.0860 S   0  0  0  0  0  6  0  0  0  0  0  0
   22.3750   13.0100    3.4910 O   0  0  0  0  0  0  0  0  0  0  0  0
   24.2230   12.6500    1.7800 O   0  0  0  0  0  0  0  0  0  0  0  0
   24.3360   14.7450    3.3490 C   0  0  0  0  0  0  0  0  0  0  0  0
   24.6610   15.5390    2.2600 C   0  0  0  0  0  0  0  0  0  0  0  0
   25.1080   16.8300    2.5180 C   0  0  0  0  0  0  0  0  0  0  0  0
   25.2090   17.2710    3.8370 C   0  0  0  0  0  0  0  0  0  0  0  0
   24.8570   16.3980    4.8620 C   0  0  0  0  0  0  0  0  0  0  0  0
   24.9390   16.8400    6.2950 C   0  0  0  0  0  0  0  0  0  0  0  0
   25.3650   17.9580    6.5560 O   0  0  0  0  0  0  0  0  0  0  0  0
   24.4950   15.8830    7.1900 N   0  0  0  0  0  0  0  0  0  0  0  0
   24.3920   15.9810    8.5900 C   0  0  0  0  0  0  0  0  0  0  0  0
   23.4600   15.2520    9.3560 C   0  0  0  0  0  0  0  0  0  0  0  0
   23.4110   15.3690   10.7540 C   0  0  0  0  0  0  0  0  0  0  0  0
   24.3050   16.2220   11.3710 C   0  0  0  0  0  0  0  0  0  0  0  0
   25.2200   16.9390   10.6090 C   0  0  0  0  0  0  0  0  0  0  0  0
   25.2850   16.8470    9.2300 C   0  0  0  0  0  0  0  0  0  0  0  0
   26.0490   17.7340   11.5210 C   0  0  0  0  0  0  0  0  0  0  0  0
   27.0120   18.3950   11.1870 O   0  0  0  0  0  0  0  0  0  0  0  0
   25.5340   17.5470   12.7960 N   0  0  0  0  0  0  0  0  0  0  0  0
   26.1980   17.9810   14.0200 C   0  0  2  0  0  0  0  0  0  0  0  0
   25.4910   17.5250   15.2960 C   0  0  0  0  0  0  0  0  0  0  0  0
   26.2940   17.9780   16.5060 C   0  0  0  0  0  0  0  0  0  0  0  0
   26.5010   19.4740   16.4990 C   0  0  0  0  0  0  0  0  0  0  0  0
   26.7360   20.1070   17.5240 O   0  0  0  0  0  0  0  0  0  0  0  0
   26.5010   20.0900   15.2720 N   0  0  0  0  0  0  0  0  0  0  0  0
   26.4040   19.5040   14.0310 C   0  0  0  0  0  0  0  0  0  0  0  0
   26.5840   20.1730   13.0140 O   0  0  0  0  0  0  0  0  0  0  0  0
   24.5020   16.5190   12.8190 C   0  0  0  0  0  0  0  0  0  0  0  0
   24.4180   15.1280    4.6490 N   0  0  0  0  0  0  0  0  0  0  0  0
   25.9070   11.7670    4.0260 C   0  0  0  0  0  0  0  0  0  0  0  0
   26.3840   11.2480    5.1380 N   0  0  0  0  0  0  0  0  0  0  0  0
   24.7464    9.1845    8.6779 H   0  0  0  0  0  0  0  0  0  0  0  0
   23.8606    9.4192    7.1330 H   0  0  0  0  0  0  0  0  0  0  0  0
   25.4708    8.6230    7.1330 H   0  0  0  0  0  0  0  0  0  0  0  0
   25.0831   11.4646    8.1432 H   0  0  0  0  0  0  0  0  0  0  0  0
   26.6009   10.6245    7.6034 H   0  0  0  0  0  0  0  0  0  0  0  0
   23.2709   12.1082    5.9625 H   0  0  0  0  0  0  0  0  0  0  0  0
   24.5687   15.1619    1.2308 H   0  0  0  0  0  0  0  0  0  0  0  0
   25.3799   17.4985    1.6879 H   0  0  0  0  0  0  0  0  0  0  0  0
   25.5600   18.2888    4.0628 H   0  0  0  0  0  0  0  0  0  0  0  0
   24.2027   14.9847    6.7795 H   0  0  0  0  0  0  0  0  0  0  0  0
   22.7560   14.5770    8.8474 H   0  0  0  0  0  0  0  0  0  0  0  0
   22.6795   14.7961   11.3429 H   0  0  0  0  0  0  0  0  0  0  0  0
   26.0152   17.4358    8.6555 H   0  0  0  0  0  0  0  0  0  0  0  0
   27.1803   17.4859   14.0164 H   0  0  0  0  0  0  0  0  0  0  0  0
   24.4847   17.9674   15.3365 H   0  0  0  0  0  0  0  0  0  0  0  0
   25.4079   16.4281   15.2989 H   0  0  0  0  0  0  0  0  0  0  0  0
   25.7530   17.6955   17.4212 H   0  0  0  0  0  0  0  0  0  0  0  0
   27.2797   17.4911   16.4704 H   0  0  0  0  0  0  0  0  0  0  0  0
   26.5838   21.1166   15.2818 H   0  0  0  0  0  0  0  0  0  0  0  0
   24.8428   15.6266   13.3644 H   0  0  0  0  0  0  0  0  0  0  0  0
   23.5806   16.8359   13.3295 H   0  0  0  0  0  0  0  0  0  0  0  0
   26.4739   11.8718    3.0892 H   0  0  0  0  0  0  0  0  0  0  0  0
  1  2  1  0
  2  3  1  0
  3  4  2  0
  4  5  1  0
  5  6  1  0
  6  7  2  0
  6  8  2  0
  6  9  1  0
  9 10  2  0
 10 11  1  0
 11 12  2  0
 12 13  1  0
 13 14  1  0
 14 15  2  0
 14 16  1  0
 16 17  1  0
 17 18  2  0
 18 19  1  0
 19 20  2  0
 20 21  1  0
 21 22  2  0
 21 23  1  0
 23 24  2  0
 23 25  1  0
 25 26  1  0
 26 27  1  0
 27 28  1  0
 28 29  1  0
 29 30  2  0
 29 31  1  0
 31 32  1  0
 32 33  2  0
 25 34  1  0
 13 35  2  0
  5 36  1  0
 36 37  2  0
 37  3  1  0
 35  9  1  0
 22 17  1  0
 32 26  1  0
 34 20  1  0
  1 38  1  0
  1 39  1  0
  1 40  1  0
  2 41  1  0
  2 42  1  0
  4 43  1  0
 10 44  1  0
 11 45  1  0
 12 46  1  0
 16 47  1  0
 18 48  1  0
 19 49  1  0
 22 50  1  0
 26 51  1  1
 27 52  1  0
 27 53  1  0
 28 54  1  0
 28 55  1  0
 31 56  1  0
 34 57  1  0
 34 58  1  0
 36 59  1  0
M  END
>  <meeko>  (510) 
{"is_sidechain": [true], "free_energy": -12.28, "intermolecular_energy": 0.0, "internal_energy": -12.28, "cluster_size": 3, "cluster_id": 2, "rank_in_cluster": 1}

>  <_RMSD_MCS_to_ref>  (510) 
1.1972009543096755

$$$$
ligand
     RDKit          3D

 59 64  0  0  0  0  0  0  0  0999 V2000
   24.8710    9.6160    7.7820 C   0  0  0  0  0  0  0  0  0  0  0  0
   25.4240   10.9650    7.3490 C   0  0  0  0  0  0  0  0  0  0  0  0
   26.9060   10.9480    7.2120 C   0  0  0  0  0  0  0  0  0  0  0  0
   27.7200   11.7920    6.4810 C   0  0  0  0  0  0  0  0  0  0  0  0
   28.9780   11.3080    6.6980 N   0  0  0  0  0  0  0  0  0  0  0  0
   30.4060   12.0550    6.2130 S   0  0  0  0  0  6  0  0  0  0  0  0
   31.4320   11.3730    6.9820 O   0  0  0  0  0  0  0  0  0  0  0  0
   30.4250   12.0080    4.7620 O   0  0  0  0  0  0  0  0  0  0  0  0
   30.3810   13.6150    6.7180 O   0  0  0  0  0  0  0  0  0  0  0  0
   29.1940   14.3310    6.8130 C   0  0  0  0  0  0  0  0  0  0  0  0
   28.8890   15.2480    5.8830 C   0  0  0  0  0  0  0  0  0  0  0  0
   27.5970   15.9540    6.0790 C   0  0  0  0  0  0  0  0  0  0  0  0
   26.7650   15.7750    7.0580 N   0  0  0  0  0  0  0  0  0  0  0  0
   27.1320   14.8550    8.0050 C   0  0  0  0  0  0  0  0  0  0  0  0
   26.5370   14.4360    9.1810 C   0  0  0  0  0  0  0  0  0  0  0  0
   25.2890   14.9330    9.7160 C   0  0  0  0  0  0  0  0  0  0  0  0
   24.0850   14.6730    9.0340 C   0  0  0  0  0  0  0  0  0  0  0  0
   22.8540   15.1700    9.5030 C   0  0  0  0  0  0  0  0  0  0  0  0
   22.8010   15.9480   10.6580 C   0  0  0  0  0  0  0  0  0  0  0  0
   23.9930   16.1940   11.3110 C   0  0  0  0  0  0  0  0  0  0  0  0
   25.2240   15.7040   10.8690 C   0  0  0  0  0  0  0  0  0  0  0  0
   26.3080   16.1880   11.7760 C   0  0  0  0  0  0  0  0  0  0  0  0
   25.5730   16.9270   12.7970 N   0  0  0  0  0  0  0  0  0  0  0  0
   26.2140   17.8030   13.7700 C   0  0  1  0  0  0  0  0  0  0  0  0
   25.5440   19.1710   13.8530 C   0  0  0  0  0  0  0  0  0  0  0  0
   26.3190   20.0540   14.8190 C   0  0  0  0  0  0  0  0  0  0  0  0
   26.4400   19.4030   16.1760 C   0  0  0  0  0  0  0  0  0  0  0  0
   26.4260   20.0520   17.2180 O   0  0  0  0  0  0  0  0  0  0  0  0
   26.5890   18.0400   16.1930 N   0  0  0  0  0  0  0  0  0  0  0  0
   26.2540   17.1750   15.1740 C   0  0  0  0  0  0  0  0  0  0  0  0
   26.0120   15.9960   15.4180 O   0  0  0  0  0  0  0  0  0  0  0  0
   24.2200   17.0040   12.5130 C   0  0  0  0  0  0  0  0  0  0  0  0
   23.3620   17.6160   13.1170 O   0  0  0  0  0  0  0  0  0  0  0  0
   27.4430   13.5050    9.7290 C   0  0  0  0  0  0  0  0  0  0  0  0
   28.5240   13.3220    8.9700 N   0  0  0  0  0  0  0  0  0  0  0  0
   28.3290   14.1350    7.9010 N   0  0  0  0  0  0  0  0  0  0  0  0
   28.9150   10.2770    7.5780 C   0  0  0  0  0  0  0  0  0  0  0  0
   27.6630   10.0130    7.8910 N   0  0  0  0  0  0  0  0  0  0  0  0
   24.8497    9.5640    8.8806 H   0  0  0  0  0  0  0  0  0  0  0  0
   23.8507    9.4948    7.3893 H   0  0  0  0  0  0  0  0  0  0  0  0
   25.5127    8.8135    7.3893 H   0  0  0  0  0  0  0  0  0  0  0  0
   24.9817   11.2341    6.3784 H   0  0  0  0  0  0  0  0  0  0  0  0
   25.1653   11.7006    8.1249 H   0  0  0  0  0  0  0  0  0  0  0  0
   27.4230   12.6545    5.8663 H   0  0  0  0  0  0  0  0  0  0  0  0
   29.5516   15.4629    5.0317 H   0  0  0  0  0  0  0  0  0  0  0  0
   27.3188   16.7008    5.3207 H   0  0  0  0  0  0  0  0  0  0  0  0
   24.1066   14.0687    8.1151 H   0  0  0  0  0  0  0  0  0  0  0  0
   21.9281   14.9427    8.9542 H   0  0  0  0  0  0  0  0  0  0  0  0
   21.8487   16.3498   11.0343 H   0  0  0  0  0  0  0  0  0  0  0  0
   26.8600   15.3453   12.2178 H   0  0  0  0  0  0  0  0  0  0  0  0
   27.0662   16.7961   11.2609 H   0  0  0  0  0  0  0  0  0  0  0  0
   27.2440   17.9387   13.4084 H   0  0  0  0  0  0  0  0  0  0  0  0
   25.5350   19.6366   12.8564 H   0  0  0  0  0  0  0  0  0  0  0  0
   24.5104   19.0534   14.2105 H   0  0  0  0  0  0  0  0  0  0  0  0
   27.3266   20.2304   14.4145 H   0  0  0  0  0  0  0  0  0  0  0  0
   25.7762   21.0037   14.9352 H   0  0  0  0  0  0  0  0  0  0  0  0
   26.9883   17.6242   17.0466 H   0  0  0  0  0  0  0  0  0  0  0  0
   27.2756   12.9839   10.6832 H   0  0  0  0  0  0  0  0  0  0  0  0
   29.7875    9.7371    7.9746 H   0  0  0  0  0  0  0  0  0  0  0  0
  1  2  1  0
  2  3  1  0
  3  4  2  0
  4  5  1  0
  5  6  1  0
  6  7  2  0
  6  8  2  0
  6  9  1  0
  9 10  1  0
 10 11  2  0
 11 12  1  0
 12 13  2  0
 13 14  1  0
 14 15  2  0
 15 16  1  0
 16 17  2  0
 17 18  1  0
 18 19  2  0
 19 20  1  0
 20 21  2  0
 21 22  1  0
 22 23  1  0
 23 24  1  0
 24 25  1  0
 25 26  1  0
 26 27  1  0
 27 28  2  0
 27 29  1  0
 29 30  1  0
 30 31  2  0
 23 32  1  0
 32 33  2  0
 15 34  1  0
 34 35  2  0
 35 36  1  0
  5 37  1  0
 37 38  2  0
 38  3  1  0
 36 10  1  0
 36 14  1  0
 21 16  1  0
 30 24  1  0
 32 20  1  0
  1 39  1  0
  1 40  1  0
  1 41  1  0
  2 42  1  0
  2 43  1  0
  4 44  1  0
 11 45  1  0
 12 46  1  0
 17 47  1  0
 18 48  1  0
 19 49  1  0
 22 50  1  0
 22 51  1  0
 24 52  1  6
 25 53  1  0
 25 54  1  0
 26 55  1  0
 26 56  1  0
 29 57  1  0
 34 58  1  0
 37 59  1  0
M  END
>  <meeko>  (511) 
{"is_sidechain": [true], "free_energy": -12.28, "intermolecular_energy": 0.0, "internal_energy": -12.28, "cluster_size": 16, "cluster_id": 1, "rank_in_cluster": 1}

>  <_RMSD_MCS_to_ref>  (511) 
1.9837530368246723

$$$$
ligand
     RDKit          3D

 49 52  0  0  0  0  0  0  0  0999 V2000
   24.8710    9.6160    7.7820 C   0  0  0  0  0  0  0  0  0  0  0  0
   25.4240   10.9650    7.3490 C   0  0  0  0  0  0  0  0  0  0  0  0
   26.7740   11.2460    7.9130 C   0  0  0  0  0  0  0  0  0  0  0  0
   27.0900   11.9680    9.0450 C   0  0  0  0  0  0  0  0  0  0  0  0
   28.4520   11.9140    9.1100 N   0  0  0  0  0  0  0  0  0  0  0  0
   29.4150   12.7790   10.1840 S   0  0  0  0  0  6  0  0  0  0  0  0
   29.0070   12.2850   11.4860 O   0  0  0  0  0  0  0  0  0  0  0  0
   30.7750   12.5880    9.7090 O   0  0  0  0  0  0  0  0  0  0  0  0
   29.0190   14.3640   10.1040 O   0  0  0  0  0  0  0  0  0  0  0  0
   27.9700   14.7800    9.3030 C   0  0  0  0  0  0  0  0  0  0  0  0
   28.0370   14.6780    7.9630 C   0  0  0  0  0  0  0  0  0  0  0  0
   26.9130   15.1240    7.1580 C   0  0  0  0  0  0  0  0  0  0  0  0
   25.8170   15.6700    7.7180 C   0  0  0  0  0  0  0  0  0  0  0  0
   25.7590   15.8240    9.1310 C   0  0  0  0  0  0  0  0  0  0  0  0
   24.8670   16.3950   10.0030 C   0  0  0  0  0  0  0  0  0  0  0  0
   25.4560   16.2610   11.2830 C   0  0  0  0  0  0  0  0  0  0  0  0
   24.9320   16.8250   12.5380 C   0  0  0  0  0  0  0  0  0  0  0  0
   23.7650   17.1910   12.6570 O   0  0  0  0  0  0  0  0  0  0  0  0
   25.8650   16.9470   13.5490 N   0  0  0  0  0  0  0  0  0  0  0  0
   25.6790   17.9500   14.5850 C   0  0  1  0  0  0  0  0  0  0  0  0
   26.3110   17.5210   15.9000 C   0  0  0  0  0  0  0  0  0  0  0  0
   26.0890   18.6020   16.9460 C   0  0  0  0  0  0  0  0  0  0  0  0
   26.6260   19.9340   16.4790 C   0  0  0  0  0  0  0  0  0  0  0  0
   27.0790   20.7690   17.2580 O   0  0  0  0  0  0  0  0  0  0  0  0
   26.5470   20.1920   15.1340 N   0  0  0  0  0  0  0  0  0  0  0  0
   26.3130   19.2760   14.1350 C   0  0  0  0  0  0  0  0  0  0  0  0
   26.5850   19.5460   12.9650 O   0  0  0  0  0  0  0  0  0  0  0  0
   26.6160   15.5750   11.2220 N   0  0  0  0  0  0  0  0  0  0  0  0
   26.8280   15.3570    9.8930 N   0  0  0  0  0  0  0  0  0  0  0  0
   28.9240   11.2710    8.0110 C   0  0  0  0  0  0  0  0  0  0  0  0
   27.9260   10.7810    7.3020 N   0  0  0  0  0  0  0  0  0  0  0  0
   24.8497    9.5640    8.8806 H   0  0  0  0  0  0  0  0  0  0  0  0
   23.8507    9.4948    7.3893 H   0  0  0  0  0  0  0  0  0  0  0  0
   25.5127    8.8135    7.3893 H   0  0  0  0  0  0  0  0  0  0  0  0
   25.4920   10.9805    6.2512 H   0  0  0  0  0  0  0  0  0  0  0  0
   24.7403   11.7391    7.7276 H   0  0  0  0  0  0  0  0  0  0  0  0
   26.4007   12.4727    9.7379 H   0  0  0  0  0  0  0  0  0  0  0  0
   28.9340   14.2610    7.4819 H   0  0  0  0  0  0  0  0  0  0  0  0
   26.9584   15.0130    6.0646 H   0  0  0  0  0  0  0  0  0  0  0  0
   24.9747   15.9938    7.0890 H   0  0  0  0  0  0  0  0  0  0  0  0
   23.8996   16.8585    9.7592 H   0  0  0  0  0  0  0  0  0  0  0  0
   26.6894   16.3298   13.5690 H   0  0  0  0  0  0  0  0  0  0  0  0
   24.5976   18.0736   14.7441 H   0  0  0  0  0  0  0  0  0  0  0  0
   25.8494   16.5821   16.2395 H   0  0  0  0  0  0  0  0  0  0  0  0
   27.3905   17.3676   15.7549 H   0  0  0  0  0  0  0  0  0  0  0  0
   25.0103   18.6980   17.1391 H   0  0  0  0  0  0  0  0  0  0  0  0
   26.6237   18.3136   17.8631 H   0  0  0  0  0  0  0  0  0  0  0  0
   26.6761   21.1714   14.8425 H   0  0  0  0  0  0  0  0  0  0  0  0
   29.9879   11.1728    7.7493 H   0  0  0  0  0  0  0  0  0  0  0  0
  1  2  1  0
  2  3  1  0
  3  4  2  0
  4  5  1  0
  5  6  1  0
  6  7  2  0
  6  8  2  0
  6  9  1  0
  9 10  1  0
 10 11  2  0
 11 12  1  0
 12 13  2  0
 13 14  1  0
 14 15  2  0
 15 16  1  0
 16 17  1  0
 17 18  2  0
 17 19  1  0
 19 20  1  0
 20 21  1  0
 21 22  1  0
 22 23  1  0
 23 24  2  0
 23 25  1  0
 25 26  1  0
 26 27  2  0
 16 28  2  0
 28 29  1  0
  5 30  1  0
 30 31  2  0
 31  3  1  0
 29 10  1  0
 29 14  1  0
 26 20  1  0
  1 32  1  0
  1 33  1  0
  1 34  1  0
  2 35  1  0
  2 36  1  0
  4 37  1  0
 11 38  1  0
 12 39  1  0
 13 40  1  0
 15 41  1  0
 19 42  1  0
 20 43  1  1
 21 44  1  0
 21 45  1  0
 22 46  1  0
 22 47  1  0
 25 48  1  0
 30 49  1  0
M  END
>  <meeko>  (512) 
{"is_sidechain": [true], "free_energy": -12.28, "intermolecular_energy": 0.0, "internal_energy": -12.28, "cluster_size": 18, "cluster_id": 1, "rank_in_cluster": 1}

>  <_RMSD_MCS_to_ref>  (512) 
1.0835049607639087

$$$$
ligand
     RDKit          3D

 60 65  0  0  0  0  0  0  0  0999 V2000
   24.8540    9.4020    7.6050 C   0  0  0  0  0  0  0  0  0  0  0  0
   25.5230   10.7550    7.4270 C   0  0  0  0  0  0  0  0  0  0  0  0
   25.3530   11.2860    6.0470 C   0  0  0  0  0  0  0  0  0  0  0  0
   24.3540   12.0970    5.5460 C   0  0  0  0  0  0  0  0  0  0  0  0
   24.7050   12.2930    4.2400 N   0  0  0  0  0  0  0  0  0  0  0  0
   23.9910   13.3920    3.1880 S   0  0  0  0  0  6  0  0  0  0  0  0
   24.6040   13.1640    1.8940 O   0  0  0  0  0  0  0  0  0  0  0  0
   22.5640   13.2480    3.4100 O   0  0  0  0  0  0  0  0  0  0  0  0
   24.4540   14.9990    3.7260 C   0  0  0  0  0  0  0  0  0  0  0  0
   24.7730   15.9710    2.7600 C   0  0  0  0  0  0  0  0  0  0  0  0
   25.1310   17.2730    3.1300 C   0  0  0  0  0  0  0  0  0  0  0  0
   25.1780   17.6550    4.4800 C   0  0  0  0  0  0  0  0  0  0  0  0
   24.8600   16.6960    5.4510 C   0  0  0  0  0  0  0  0  0  0  0  0
   24.8100   16.7790    6.8190 N   0  0  0  0  0  0  0  0  0  0  0  0
   24.4520   15.5710    7.2040 C   0  0  0  0  0  0  0  0  0  0  0  0
   24.2160   15.0330    8.4100 N   0  0  0  0  0  0  0  0  0  0  0  0
   24.3110   15.6270    9.6820 C   0  0  0  0  0  0  0  0  0  0  0  0
   23.2810   15.3520   10.6210 C   0  0  0  0  0  0  0  0  0  0  0  0
   23.2880   15.9020   11.9080 C   0  0  0  0  0  0  0  0  0  0  0  0
   24.3410   16.7300   12.2330 C   0  0  0  0  0  0  0  0  0  0  0  0
   25.3670   17.0190   11.3410 C   0  0  0  0  0  0  0  0  0  0  0  0
   25.3640   16.4740   10.0650 C   0  0  0  0  0  0  0  0  0  0  0  0
   26.3680   17.9180   11.9860 C   0  0  0  0  0  0  0  0  0  0  0  0
   25.7600   18.1890   13.2840 N   0  0  0  0  0  0  0  0  0  0  0  0
   26.4680   18.8300   14.3850 C   0  0  2  0  0  0  0  0  0  0  0  0
   26.2140   18.1390   15.7220 C   0  0  0  0  0  0  0  0  0  0  0  0
   27.0540   18.8040   16.8010 C   0  0  0  0  0  0  0  0  0  0  0  0
   26.7780   20.2880   16.8710 C   0  0  0  0  0  0  0  0  0  0  0  0
   26.7800   20.9070   17.9300 O   0  0  0  0  0  0  0  0  0  0  0  0
   26.5410   20.9230   15.6800 N   0  0  0  0  0  0  0  0  0  0  0  0
   26.1150   20.3210   14.5170 C   0  0  0  0  0  0  0  0  0  0  0  0
   25.4930   20.9670   13.6770 O   0  0  0  0  0  0  0  0  0  0  0  0
   24.6110   17.4380   13.4890 C   0  0  0  0  0  0  0  0  0  0  0  0
   23.9350   17.3620   14.4960 O   0  0  0  0  0  0  0  0  0  0  0  0
   24.2710   14.6950    6.1710 O   0  0  0  0  0  0  0  0  0  0  0  0
   24.5190   15.4170    5.0470 C   0  0  0  0  0  0  0  0  0  0  0  0
   25.8580   11.6200    3.9820 C   0  0  0  0  0  0  0  0  0  0  0  0
   26.2860   11.0050    5.0670 N   0  0  0  0  0  0  0  0  0  0  0  0
   24.7464    9.1845    8.6779 H   0  0  0  0  0  0  0  0  0  0  0  0
   23.8606    9.4192    7.1330 H   0  0  0  0  0  0  0  0  0  0  0  0
   25.4708    8.6230    7.1330 H   0  0  0  0  0  0  0  0  0  0  0  0
   25.0786   11.4668    8.1383 H   0  0  0  0  0  0  0  0  0  0  0  0
   26.6000   10.6273    7.6107 H   0  0  0  0  0  0  0  0  0  0  0  0
   23.4763   12.4944    6.0768 H   0  0  0  0  0  0  0  0  0  0  0  0
   24.7405   15.7028    1.6937 H   0  0  0  0  0  0  0  0  0  0  0  0
   25.3794   18.0083    2.3505 H   0  0  0  0  0  0  0  0  0  0  0  0
   25.4569   18.6794    4.7678 H   0  0  0  0  0  0  0  0  0  0  0  0
   23.9239   14.0453    8.4040 H   0  0  0  0  0  0  0  0  0  0  0  0
   22.4544   14.6879   10.3282 H   0  0  0  0  0  0  0  0  0  0  0  0
   22.4872   15.6828   12.6295 H   0  0  0  0  0  0  0  0  0  0  0  0
   26.1776   16.7028    9.3609 H   0  0  0  0  0  0  0  0  0  0  0  0
   27.3394   17.4145   12.0995 H   0  0  0  0  0  0  0  0  0  0  0  0
   26.5806   18.8265   11.4034 H   0  0  0  0  0  0  0  0  0  0  0  0
   27.5352   18.7368   14.1352 H   0  0  0  0  0  0  0  0  0  0  0  0
   25.1485   18.2232   15.9822 H   0  0  0  0  0  0  0  0  0  0  0  0
   26.4885   17.0766   15.6449 H   0  0  0  0  0  0  0  0  0  0  0  0
   26.8153   18.3484   17.7733 H   0  0  0  0  0  0  0  0  0  0  0  0
   28.1162   18.6584   16.5548 H   0  0  0  0  0  0  0  0  0  0  0  0
   26.6952   21.9410   15.6522 H   0  0  0  0  0  0  0  0  0  0  0  0
   26.3629   11.5925    3.0051 H   0  0  0  0  0  0  0  0  0  0  0  0
  1  2  1  0
  2  3  1  0
  3  4  2  0
  4  5  1  0
  5  6  1  0
  6  7  2  0
  6  8  2  0
  6  9  1  0
  9 10  2  0
 10 11  1  0
 11 12  2  0
 12 13  1  0
 13 14  1  0
 14 15  2  0
 15 16  1  0
 16 17  1  0
 17 18  2  0
 18 19  1  0
 19 20  2  0
 20 21  1  0
 21 22  2  0
 21 23  1  0
 23 24  1  0
 24 25  1  0
 25 26  1  0
 26 27  1  0
 27 28  1  0
 28 29  2  0
 28 30  1  0
 30 31  1  0
 31 32  2  0
 24 33  1  0
 33 34  2  0
 15 35  1  0
 35 36  1  0
  5 37  1  0
 37 38  2  0
 38  3  1  0
 36  9  1  0
 36 13  2  0
 22 17  1  0
 31 25  1  0
 33 20  1  0
  1 39  1  0
  1 40  1  0
  1 41  1  0
  2 42  1  0
  2 43  1  0
  4 44  1  0
 10 45  1  0
 11 46  1  0
 12 47  1  0
 16 48  1  0
 18 49  1  0
 19 50  1  0
 22 51  1  0
 23 52  1  0
 23 53  1  0
 25 54  1  6
 26 55  1  0
 26 56  1  0
 27 57  1  0
 27 58  1  0
 30 59  1  0
 37 60  1  0
M  END
>  <meeko>  (513) 
{"is_sidechain": [true], "free_energy": -12.27, "intermolecular_energy": 0.0, "internal_energy": -12.27, "cluster_size": 14, "cluster_id": 1, "rank_in_cluster": 1}

>  <_RMSD_MCS_to_ref>  (513) 
0.9917466634400345

$$$$
ligand
     RDKit          3D

 60 64  0  0  0  0  0  0  0  0999 V2000
   24.8710    9.6160    7.7820 C   0  0  0  0  0  0  0  0  0  0  0  0
   25.4240   10.9650    7.3490 C   0  0  0  0  0  0  0  0  0  0  0  0
   26.9100   11.0130    7.4220 C   0  0  0  0  0  0  0  0  0  0  0  0
   27.7240   12.0320    7.8780 C   0  0  0  0  0  0  0  0  0  0  0  0
   28.9880   11.5370    7.7390 N   0  0  0  0  0  0  0  0  0  0  0  0
   30.4120   12.4060    7.9470 S   0  0  0  0  0  6  0  0  0  0  0  0
   30.0860   13.7880    7.6540 O   0  0  0  0  0  0  0  0  0  0  0  0
   31.4240   11.6790    7.1980 O   0  0  0  0  0  0  0  0  0  0  0  0
   30.7490   12.2420    9.6800 C   0  0  0  0  0  0  0  0  0  0  0  0
   31.9900   11.6860   10.0350 C   0  0  0  0  0  0  0  0  0  0  0  0
   32.3440   11.5720   11.3750 C   0  0  0  0  0  0  0  0  0  0  0  0
   31.4610   12.0070   12.3560 C   0  0  0  0  0  0  0  0  0  0  0  0
   30.2190   12.5460   12.0020 C   0  0  0  0  0  0  0  0  0  0  0  0
   29.8330   12.6700   10.6620 C   0  0  0  0  0  0  0  0  0  0  0  0
   28.5600   13.1780   10.3000 N   0  0  0  0  0  0  0  0  0  0  0  0
   28.1960   14.4970   10.0980 C   0  0  0  0  0  0  0  0  0  0  0  0
   28.9430   15.4680   10.1010 O   0  0  0  0  0  0  0  0  0  0  0  0
   26.7590   14.7130    9.7760 C   0  0  0  0  0  0  0  0  0  0  0  0
   26.1610   14.1700    8.6210 C   0  0  0  0  0  0  0  0  0  0  0  0
   24.8060   14.4150    8.3260 C   0  0  0  0  0  0  0  0  0  0  0  0
   24.0250   15.1970    9.1750 C   0  0  0  0  0  0  0  0  0  0  0  0
   24.6280   15.7010   10.3120 C   0  0  0  0  0  0  0  0  0  0  0  0
   25.9650   15.4670   10.6300 C   0  0  0  0  0  0  0  0  0  0  0  0
   26.3130   16.1560   11.9080 C   0  0  0  0  0  0  0  0  0  0  0  0
   25.0430   16.7580   12.2990 N   0  0  0  0  0  0  0  0  0  0  0  0
   24.9280   17.7740   13.3400 C   0  0  1  0  0  0  0  0  0  0  0  0
   25.4530   17.2930   14.6880 C   0  0  0  0  0  0  0  0  0  0  0  0
   25.2220   18.3740   15.7350 C   0  0  0  0  0  0  0  0  0  0  0  0
   25.8530   19.6810   15.3170 C   0  0  0  0  0  0  0  0  0  0  0  0
   26.3490   20.4590   16.1270 O   0  0  0  0  0  0  0  0  0  0  0  0
   25.8270   19.9770   13.9780 N   0  0  0  0  0  0  0  0  0  0  0  0
   25.6570   19.0740   12.9530 C   0  0  0  0  0  0  0  0  0  0  0  0
   26.0760   19.3290   11.8260 O   0  0  0  0  0  0  0  0  0  0  0  0
   24.0540   16.5610   11.3510 C   0  0  0  0  0  0  0  0  0  0  0  0
   22.9230   17.0080   11.3400 O   0  0  0  0  0  0  0  0  0  0  0  0
   28.9250   10.3010    7.1810 C   0  0  0  0  0  0  0  0  0  0  0  0
   27.6720    9.9470    6.9870 N   0  0  0  0  0  0  0  0  0  0  0  0
   24.8497    9.5640    8.8806 H   0  0  0  0  0  0  0  0  0  0  0  0
   23.8507    9.4948    7.3893 H   0  0  0  0  0  0  0  0  0  0  0  0
   25.5127    8.8135    7.3893 H   0  0  0  0  0  0  0  0  0  0  0  0
   25.1138   11.1586    6.3115 H   0  0  0  0  0  0  0  0  0  0  0  0
   25.0273   11.7284    8.0344 H   0  0  0  0  0  0  0  0  0  0  0  0
   27.4223   13.0167    8.2645 H   0  0  0  0  0  0  0  0  0  0  0  0
   32.6817   11.3408    9.2524 H   0  0  0  0  0  0  0  0  0  0  0  0
   33.3160   11.1406   11.6564 H   0  0  0  0  0  0  0  0  0  0  0  0
   31.7400   11.9272   13.4170 H   0  0  0  0  0  0  0  0  0  0  0  0
   29.5315   12.8793   12.7934 H   0  0  0  0  0  0  0  0  0  0  0  0
   27.8145   12.4789   10.1716 H   0  0  0  0  0  0  0  0  0  0  0  0
   26.7605   13.5467    7.9412 H   0  0  0  0  0  0  0  0  0  0  0  0
   24.3599   13.9852    7.4170 H   0  0  0  0  0  0  0  0  0  0  0  0
   22.9688   15.4052    8.9488 H   0  0  0  0  0  0  0  0  0  0  0  0
   26.6619   15.4377   12.6645 H   0  0  0  0  0  0  0  0  0  0  0  0
   27.1301   16.8851   11.8043 H   0  0  0  0  0  0  0  0  0  0  0  0
   23.8509   17.9753   13.4367 H   0  0  0  0  0  0  0  0  0  0  0  0
   24.9213   16.3764   14.9832 H   0  0  0  0  0  0  0  0  0  0  0  0
   26.5296   17.0817   14.6091 H   0  0  0  0  0  0  0  0  0  0  0  0
   24.1399   18.5230   15.8646 H   0  0  0  0  0  0  0  0  0  0  0  0
   25.6840   18.0497   16.6791 H   0  0  0  0  0  0  0  0  0  0  0  0
   25.9456   20.9658   13.7153 H   0  0  0  0  0  0  0  0  0  0  0  0
   29.7982    9.6823    6.9267 H   0  0  0  0  0  0  0  0  0  0  0  0
  1  2  1  0
  2  3  1  0
  3  4  2  0
  4  5  1  0
  5  6  1  0
  6  7  2  0
  6  8  2  0
  6  9  1  0
  9 10  2  0
 10 11  1  0
 11 12  2  0
 12 13  1  0
 13 14  2  0
 14 15  1  0
 15 16  1  0
 16 17  2  0
 16 18  1  0
 18 19  2  0
 19 20  1  0
 20 21  2  0
 21 22  1  0
 22 23  2  0
 23 24  1  0
 24 25  1  0
 25 26  1  0
 26 27  1  0
 27 28  1  0
 28 29  1  0
 29 30  2  0
 29 31  1  0
 31 32  1  0
 32 33  2  0
 25 34  1  0
 34 35  2  0
  5 36  1  0
 36 37  2  0
 37  3  1  0
 14  9  1  0
 23 18  1  0
 32 26  1  0
 34 22  1  0
  1 38  1  0
  1 39  1  0
  1 40  1  0
  2 41  1  0
  2 42  1  0
  4 43  1  0
 10 44  1  0
 11 45  1  0
 12 46  1  0
 13 47  1  0
 15 48  1  0
 19 49  1  0
 20 50  1  0
 21 51  1  0
 24 52  1  0
 24 53  1  0
 26 54  1  1
 27 55  1  0
 27 56  1  0
 28 57  1  0
 28 58  1  0
 31 59  1  0
 36 60  1  0
M  END
>  <meeko>  (514) 
{"is_sidechain": [true], "free_energy": -12.27, "intermolecular_energy": 0.0, "internal_energy": -12.27, "cluster_size": 11, "cluster_id": 1, "rank_in_cluster": 1}

>  <_RMSD_MCS_to_ref>  (514) 
1.638503789030305

$$$$
ligand
     RDKit          3D

 59 62  0  0  0  0  0  0  0  0999 V2000
   24.8710    9.6160    7.7820 C   0  0  0  0  0  0  0  0  0  0  0  0
   25.4240   10.9650    7.3490 C   0  0  0  0  0  0  0  0  0  0  0  0
   26.7570   11.2430    7.9510 C   0  0  0  0  0  0  0  0  0  0  0  0
   28.0030   11.1920    7.3590 C   0  0  0  0  0  0  0  0  0  0  0  0
   28.8650   11.5300    8.3610 N   0  0  0  0  0  0  0  0  0  0  0  0
   30.5130   11.8260    8.2080 S   0  0  0  0  0  6  0  0  0  0  0  0
   30.7040   13.1580    8.7550 O   0  0  0  0  0  0  0  0  0  0  0  0
   31.1890   10.6750    8.7830 O   0  0  0  0  0  0  0  0  0  0  0  0
   30.7690   11.8980    6.4480 C   0  0  0  0  0  0  0  0  0  0  0  0
   31.6680   10.9790    5.8820 C   0  0  0  0  0  0  0  0  0  0  0  0
   31.9280   11.0070    4.5120 C   0  0  0  0  0  0  0  0  0  0  0  0
   31.2890   11.9430    3.7020 C   0  0  0  0  0  0  0  0  0  0  0  0
   30.3830   12.8470    4.2580 C   0  0  0  0  0  0  0  0  0  0  0  0
   30.1120   12.8300    5.6330 C   0  0  0  0  0  0  0  0  0  0  0  0
   29.1450   13.7540    6.1320 C   0  0  0  0  0  0  0  0  0  0  0  0
   28.3050   14.4320    6.6590 C   0  0  0  0  0  0  0  0  0  0  0  0
   27.4210   15.2260    7.4810 C   0  0  0  0  0  0  0  0  0  0  0  0
   26.4630   15.7670    6.9550 O   0  0  0  0  0  0  0  0  0  0  0  0
   27.8240   15.2680    8.7950 N   0  0  0  0  0  0  0  0  0  0  0  0
   27.2230   15.9640    9.8590 C   0  0  0  0  0  0  0  0  0  0  0  0
   26.4230   15.2290   10.7350 C   0  0  0  0  0  0  0  0  0  0  0  0
   25.7940   15.8550   11.8180 C   0  0  0  0  0  0  0  0  0  0  0  0
   25.9210   17.2310   12.0430 C   0  0  0  0  0  0  0  0  0  0  0  0
   25.3220   17.7740   13.1820 N   0  0  0  0  0  0  0  0  0  0  0  0
   26.1250   18.1500   14.3540 C   0  0  2  0  0  0  0  0  0  0  0  0
   25.2420   18.1780   15.6010 C   0  0  0  0  0  0  0  0  0  0  0  0
   26.0630   18.6240   16.7990 C   0  0  0  0  0  0  0  0  0  0  0  0
   26.6900   19.9760   16.5580 C   0  0  0  0  0  0  0  0  0  0  0  0
   26.9110   20.7700   17.4670 O   0  0  0  0  0  0  0  0  0  0  0  0
   27.0500   20.2630   15.2660 N   0  0  0  0  0  0  0  0  0  0  0  0
   26.7050   19.5610   14.1360 C   0  0  0  0  0  0  0  0  0  0  0  0
   26.8740   20.0480   13.0170 O   0  0  0  0  0  0  0  0  0  0  0  0
   26.7580   17.9450   11.1820 C   0  0  0  0  0  0  0  0  0  0  0  0
   27.3910   17.3260   10.0930 C   0  0  0  0  0  0  0  0  0  0  0  0
   28.1550   11.7890    9.4900 C   0  0  0  0  0  0  0  0  0  0  0  0
   26.8680   11.6220    9.2740 N   0  0  0  0  0  0  0  0  0  0  0  0
   24.8497    9.5640    8.8806 H   0  0  0  0  0  0  0  0  0  0  0  0
   23.8507    9.4948    7.3893 H   0  0  0  0  0  0  0  0  0  0  0  0
   25.5127    8.8135    7.3893 H   0  0  0  0  0  0  0  0  0  0  0  0
   25.5209   10.9735    6.2533 H   0  0  0  0  0  0  0  0  0  0  0  0
   24.7274   11.7433    7.6941 H   0  0  0  0  0  0  0  0  0  0  0  0
   28.2456   10.9370    6.3168 H   0  0  0  0  0  0  0  0  0  0  0  0
   32.1679   10.2358    6.5205 H   0  0  0  0  0  0  0  0  0  0  0  0
   32.6370   10.2906    4.0715 H   0  0  0  0  0  0  0  0  0  0  0  0
   31.4989   11.9695    2.6225 H   0  0  0  0  0  0  0  0  0  0  0  0
   29.8771   13.5793    3.6116 H   0  0  0  0  0  0  0  0  0  0  0  0
   28.6673   14.7244    9.0280 H   0  0  0  0  0  0  0  0  0  0  0  0
   26.2855   14.1497   10.5734 H   0  0  0  0  0  0  0  0  0  0  0  0
   25.1859   15.2517   12.5081 H   0  0  0  0  0  0  0  0  0  0  0  0
   24.3016   17.9131   13.2008 H   0  0  0  0  0  0  0  0  0  0  0  0
   26.9339   17.4165   14.4870 H   0  0  0  0  0  0  0  0  0  0  0  0
   24.4108   18.8814   15.4449 H   0  0  0  0  0  0  0  0  0  0  0  0
   24.8425   17.1702   15.7876 H   0  0  0  0  0  0  0  0  0  0  0  0
   25.4079   18.6843   17.6806 H   0  0  0  0  0  0  0  0  0  0  0  0
   26.8669   17.8913   16.9627 H   0  0  0  0  0  0  0  0  0  0  0  0
   27.6426   21.0940   15.1278 H   0  0  0  0  0  0  0  0  0  0  0  0
   26.9248   19.0173   11.3618 H   0  0  0  0  0  0  0  0  0  0  0  0
   28.0246   17.9215    9.4193 H   0  0  0  0  0  0  0  0  0  0  0  0
   28.5948   12.0955   10.4505 H   0  0  0  0  0  0  0  0  0  0  0  0
  1  2  1  0
  2  3  1  0
  3  4  2  0
  4  5  1  0
  5  6  1  0
  6  7  2  0
  6  8  2  0
  6  9  1  0
  9 10  2  0
 10 11  1  0
 11 12  2  0
 12 13  1  0
 13 14  2  0
 14 15  1  0
 15 16  3  0
 16 17  1  0
 17 18  2  0
 17 19  1  0
 19 20  1  0
 20 21  2  0
 21 22  1  0
 22 23  2  0
 23 24  1  0
 24 25  1  0
 25 26  1  0
 26 27  1  0
 27 28  1  0
 28 29  2  0
 28 30  1  0
 30 31  1  0
 31 32  2  0
 23 33  1  0
 33 34  2  0
  5 35  1  0
 35 36  2  0
 36  3  1  0
 14  9  1  0
 34 20  1  0
 31 25  1  0
  1 37  1  0
  1 38  1  0
  1 39  1  0
  2 40  1  0
  2 41  1  0
  4 42  1  0
 10 43  1  0
 11 44  1  0
 12 45  1  0
 13 46  1  0
 19 47  1  0
 21 48  1  0
 22 49  1  0
 24 50  1  0
 25 51  1  1
 26 52  1  0
 26 53  1  0
 27 54  1  0
 27 55  1  0
 30 56  1  0
 33 57  1  0
 34 58  1  0
 35 59  1  0
M  END
>  <meeko>  (515) 
{"is_sidechain": [true], "free_energy": -12.26, "intermolecular_energy": 0.0, "internal_energy": -12.26, "cluster_size": 17, "cluster_id": 1, "rank_in_cluster": 1}

>  <_RMSD_MCS_to_ref>  (515) 
1.2494599277732399

$$$$
ligand
     RDKit          3D

 50 53  0  0  0  0  0  0  0  0999 V2000
   24.8710    9.6160    7.7820 C   0  0  0  0  0  0  0  0  0  0  0  0
   25.4240   10.9650    7.3490 C   0  0  0  0  0  0  0  0  0  0  0  0
   26.5540   11.4120    8.2090 C   0  0  0  0  0  0  0  0  0  0  0  0
   27.5000   12.3860    7.9620 C   0  0  0  0  0  0  0  0  0  0  0  0
   28.3080   12.3540    9.0630 N   0  0  0  0  0  0  0  0  0  0  0  0
   29.5150   13.4680    9.4330 S   0  0  0  0  0  6  0  0  0  0  0  0
   30.4880   13.3380    8.3650 O   0  0  0  0  0  0  0  0  0  0  0  0
   29.8780   13.1890   10.8140 O   0  0  0  0  0  0  0  0  0  0  0  0
   28.8220   14.9450    9.3450 O   0  0  0  0  0  0  0  0  0  0  0  0
   27.5560   15.1990    9.6850 C   0  0  0  0  0  0  0  0  0  0  0  0
   27.0600   15.7170   10.8600 C   0  0  0  0  0  0  0  0  0  0  0  0
   25.6410   15.8240   10.7530 C   0  0  0  0  0  0  0  0  0  0  0  0
   24.5990   16.2560   11.6080 C   0  0  0  0  0  0  0  0  0  0  0  0
   24.9150   16.7520   12.9740 C   0  0  0  0  0  0  0  0  0  0  0  0
   25.0340   15.9840   13.9220 O   0  0  0  0  0  0  0  0  0  0  0  0
   25.0360   18.1200   13.1080 N   0  0  0  0  0  0  0  0  0  0  0  0
   25.1790   18.7340   14.4210 C   0  0  1  0  0  0  0  0  0  0  0  0
   26.1870   17.9970   15.2960 C   0  0  0  0  0  0  0  0  0  0  0  0
   26.3150   18.7130   16.6330 C   0  0  0  0  0  0  0  0  0  0  0  0
   26.6900   20.1640   16.4450 C   0  0  0  0  0  0  0  0  0  0  0  0
   27.4040   20.7690   17.2380 O   0  0  0  0  0  0  0  0  0  0  0  0
   26.1660   20.7960   15.3450 N   0  0  0  0  0  0  0  0  0  0  0  0
   25.6480   20.1820   14.2330 C   0  0  0  0  0  0  0  0  0  0  0  0
   25.5610   20.7760   13.1580 O   0  0  0  0  0  0  0  0  0  0  0  0
   23.2730   16.2290   11.1370 C   0  0  0  0  0  0  0  0  0  0  0  0
   22.9790   15.7660    9.8550 C   0  0  0  0  0  0  0  0  0  0  0  0
   23.9920   15.3190    9.0040 C   0  0  0  0  0  0  0  0  0  0  0  0
   25.3080   15.3620    9.4770 C   0  0  0  0  0  0  0  0  0  0  0  0
   26.4800   15.0000    8.8510 N   0  0  0  0  0  0  0  0  0  0  0  0
   27.8080   11.4620    9.9560 C   0  0  0  0  0  0  0  0  0  0  0  0
   26.7560   10.8490    9.4540 N   0  0  0  0  0  0  0  0  0  0  0  0
   24.8497    9.5640    8.8806 H   0  0  0  0  0  0  0  0  0  0  0  0
   23.8507    9.4948    7.3893 H   0  0  0  0  0  0  0  0  0  0  0  0
   25.5127    8.8135    7.3893 H   0  0  0  0  0  0  0  0  0  0  0  0
   25.7788   10.8857    6.3108 H   0  0  0  0  0  0  0  0  0  0  0  0
   24.6163   11.7061    7.4406 H   0  0  0  0  0  0  0  0  0  0  0  0
   27.5841   13.0386    7.0805 H   0  0  0  0  0  0  0  0  0  0  0  0
   27.6592   16.0017   11.7375 H   0  0  0  0  0  0  0  0  0  0  0  0
   25.0250   18.7154   12.2676 H   0  0  0  0  0  0  0  0  0  0  0  0
   24.2031   18.6899   14.9267 H   0  0  0  0  0  0  0  0  0  0  0  0
   25.8427   16.9658   15.4635 H   0  0  0  0  0  0  0  0  0  0  0  0
   27.1655   17.9791   14.7938 H   0  0  0  0  0  0  0  0  0  0  0  0
   25.3526   18.6574   17.1628 H   0  0  0  0  0  0  0  0  0  0  0  0
   27.1087   18.2220   17.2151 H   0  0  0  0  0  0  0  0  0  0  0  0
   26.1613   21.8259   15.3554 H   0  0  0  0  0  0  0  0  0  0  0  0
   22.4582   16.5776   11.7885 H   0  0  0  0  0  0  0  0  0  0  0  0
   21.9348   15.7527    9.5093 H   0  0  0  0  0  0  0  0  0  0  0  0
   23.7628   14.9454    7.9951 H   0  0  0  0  0  0  0  0  0  0  0  0
   26.5424   14.6313    7.8913 H   0  0  0  0  0  0  0  0  0  0  0  0
   28.2231   11.2773   10.9578 H   0  0  0  0  0  0  0  0  0  0  0  0
  1  2  1  0
  2  3  1  0
  3  4  2  0
  4  5  1  0
  5  6  1  0
  6  7  2  0
  6  8  2  0
  6  9  1  0
  9 10  1  0
 10 11  2  0
 11 12  1  0
 12 13  2  0
 13 14  1  0
 14 15  2  0
 14 16  1  0
 16 17  1  0
 17 18  1  0
 18 19  1  0
 19 20  1  0
 20 21  2  0
 20 22  1  0
 22 23  1  0
 23 24  2  0
 13 25  1  0
 25 26  2  0
 26 27  1  0
 27 28  2  0
 28 29  1  0
  5 30  1  0
 30 31  2  0
 31  3  1  0
 29 10  1  0
 28 12  1  0
 23 17  1  0
  1 32  1  0
  1 33  1  0
  1 34  1  0
  2 35  1  0
  2 36  1  0
  4 37  1  0
 11 38  1  0
 16 39  1  0
 17 40  1  1
 18 41  1  0
 18 42  1  0
 19 43  1  0
 19 44  1  0
 22 45  1  0
 25 46  1  0
 26 47  1  0
 27 48  1  0
 29 49  1  0
 30 50  1  0
M  END
>  <meeko>  (516) 
{"is_sidechain": [true], "free_energy": -12.26, "intermolecular_energy": 0.0, "internal_energy": -12.26, "cluster_size": 16, "cluster_id": 1, "rank_in_cluster": 1}

>  <_RMSD_MCS_to_ref>  (516) 
0.7225448082991118

$$$$
ligand
     RDKit          3D

 65 69  0  0  0  0  0  0  0  0999 V2000
   24.8540    9.4020    7.6050 C   0  0  0  0  0  0  0  0  0  0  0  0
   25.5230   10.7550    7.4270 C   0  0  0  0  0  0  0  0  0  0  0  0
   24.9530   11.5180    6.2830 C   0  0  0  0  0  0  0  0  0  0  0  0
   25.5270   12.5340    5.5440 C   0  0  0  0  0  0  0  0  0  0  0  0
   24.5790   12.8450    4.6120 N   0  0  0  0  0  0  0  0  0  0  0  0
   24.6280   14.1500    3.5540 S   0  0  0  0  0  6  0  0  0  0  0  0
   23.2590   14.3610    3.1250 O   0  0  0  0  0  0  0  0  0  0  0  0
   25.6990   13.8620    2.6200 O   0  0  0  0  0  0  0  0  0  0  0  0
   25.1210   15.5000    4.5880 C   0  0  0  0  0  0  0  0  0  0  0  0
   25.6580   16.6500    4.0140 C   0  0  0  0  0  0  0  0  0  0  0  0
   26.0390   17.7090    4.8370 C   0  0  0  0  0  0  0  0  0  0  0  0
   25.9010   17.6260    6.2340 C   0  0  0  0  0  0  0  0  0  0  0  0
   25.3720   16.4560    6.8100 C   0  0  0  0  0  0  0  0  0  0  0  0
   24.9870   15.3920    5.9760 C   0  0  0  0  0  0  0  0  0  0  0  0
   25.2080   16.3130    8.3070 C   0  0  0  0  0  0  0  0  0  0  0  0
   26.5500   16.3130    9.0750 C   0  0  2  0  0  0  0  0  0  0  0  0
   26.3360   15.7180   10.4080 N   0  0  0  0  0  0  0  0  0  0  0  0
   25.4630   16.2810   11.3420 C   0  0  0  0  0  0  0  0  0  0  0  0
   24.1050   15.9740   11.4230 C   0  0  0  0  0  0  0  0  0  0  0  0
   23.3030   16.5340   12.4160 C   0  0  0  0  0  0  0  0  0  0  0  0
   23.8540   17.3890   13.3710 C   0  0  0  0  0  0  0  0  0  0  0  0
   25.2200   17.6910   13.3610 C   0  0  0  0  0  0  0  0  0  0  0  0
   25.8030   18.5340   14.3700 N   0  0  0  0  0  0  0  0  0  0  0  0
   26.5580   17.9300   15.4640 C   0  0  0  0  0  0  0  0  0  0  0  0
   26.3320   18.6840   16.7580 C   0  0  0  0  0  0  0  0  0  0  0  0
   26.6410   20.1330   16.5460 C   0  0  0  0  0  0  0  0  0  0  0  0
   26.9520   20.8830   17.4660 O   0  0  0  0  0  0  0  0  0  0  0  0
   26.4690   20.5930   15.2710 N   0  0  0  0  0  0  0  0  0  0  0  0
   25.8560   19.9270   14.2350 C   0  0  0  0  0  0  0  0  0  0  0  0
   25.4260   20.5930   13.2970 O   0  0  0  0  0  0  0  0  0  0  0  0
   26.0030   17.1140   12.3430 C   0  0  0  0  0  0  0  0  0  0  0  0
   27.0920   17.7390    9.2830 C   0  0  0  0  0  0  0  0  0  0  0  0
   27.4980   18.4700    8.0030 C   0  0  0  0  0  0  0  0  0  0  0  0
   26.3270   18.8020    7.0800 C   0  0  0  0  0  0  0  0  0  0  0  0
   23.4750   12.0820    4.8250 C   0  0  0  0  0  0  0  0  0  0  0  0
   23.6750   11.2550    5.8310 N   0  0  0  0  0  0  0  0  0  0  0  0
   24.7464    9.1845    8.6779 H   0  0  0  0  0  0  0  0  0  0  0  0
   23.8606    9.4192    7.1330 H   0  0  0  0  0  0  0  0  0  0  0  0
   25.4708    8.6230    7.1330 H   0  0  0  0  0  0  0  0  0  0  0  0
   25.3862   11.3417    8.3474 H   0  0  0  0  0  0  0  0  0  0  0  0
   26.5888   10.5799    7.2186 H   0  0  0  0  0  0  0  0  0  0  0  0
   26.5201   12.9883    5.6761 H   0  0  0  0  0  0  0  0  0  0  0  0
   25.7802   16.7219    2.9232 H   0  0  0  0  0  0  0  0  0  0  0  0
   26.4537   18.6230    4.3869 H   0  0  0  0  0  0  0  0  0  0  0  0
   24.5786   14.4706    6.4168 H   0  0  0  0  0  0  0  0  0  0  0  0
   24.5972   17.1517    8.6725 H   0  0  0  0  0  0  0  0  0  0  0  0
   24.7296   15.3394    8.4895 H   0  0  0  0  0  0  0  0  0  0  0  0
   27.2756   15.7389    8.4801 H   0  0  0  0  0  0  0  0  0  0  0  0
   26.8470   14.8594   10.6581 H   0  0  0  0  0  0  0  0  0  0  0  0
   23.6609   15.2807   10.6935 H   0  0  0  0  0  0  0  0  0  0  0  0
   22.2286   16.3003   12.4469 H   0  0  0  0  0  0  0  0  0  0  0  0
   23.2059   17.8314   14.1419 H   0  0  0  0  0  0  0  0  0  0  0  0
   26.2327   16.8872   15.5933 H   0  0  0  0  0  0  0  0  0  0  0  0
   27.6290   17.9706   15.2162 H   0  0  0  0  0  0  0  0  0  0  0  0
   25.2827   18.5737   17.0692 H   0  0  0  0  0  0  0  0  0  0  0  0
   26.9890   18.2776   17.5411 H   0  0  0  0  0  0  0  0  0  0  0  0
   26.8353   21.5333   15.0647 H   0  0  0  0  0  0  0  0  0  0  0  0
   27.0830   17.3222   12.3281 H   0  0  0  0  0  0  0  0  0  0  0  0
   26.3105   18.3317    9.7810 H   0  0  0  0  0  0  0  0  0  0  0  0
   28.0093   17.6346    9.8811 H   0  0  0  0  0  0  0  0  0  0  0  0
   27.9944   19.4105    8.2842 H   0  0  0  0  0  0  0  0  0  0  0  0
   28.1608   17.7919    7.4454 H   0  0  0  0  0  0  0  0  0  0  0  0
   25.4729   19.1205    7.6956 H   0  0  0  0  0  0  0  0  0  0  0  0
   26.6568   19.5999    6.3983 H   0  0  0  0  0  0  0  0  0  0  0  0
   22.5456   12.1458    4.2401 H   0  0  0  0  0  0  0  0  0  0  0  0
  1  2  1  0
  2  3  1  0
  3  4  2  0
  4  5  1  0
  5  6  1  0
  6  7  2  0
  6  8  2  0
  6  9  1  0
  9 10  2  0
 10 11  1  0
 11 12  2  0
 12 13  1  0
 13 14  2  0
 13 15  1  0
 15 16  1  0
 16 17  1  0
 17 18  1  0
 18 19  2  0
 19 20  1  0
 20 21  2  0
 21 22  1  0
 22 23  1  0
 23 24  1  0
 24 25  1  0
 25 26  1  0
 26 27  2  0
 26 28  1  0
 28 29  1  0
 29 30  2  0
 22 31  2  0
 16 32  1  0
 32 33  1  0
 33 34  1  0
  5 35  1  0
 35 36  2  0
 36  3  1  0
 14  9  1  0
 31 18  1  0
 34 12  1  0
 29 23  1  0
  1 37  1  0
  1 38  1  0
  1 39  1  0
  2 40  1  0
  2 41  1  0
  4 42  1  0
 10 43  1  0
 11 44  1  0
 14 45  1  0
 15 46  1  0
 15 47  1  0
 16 48  1  6
 17 49  1  0
 19 50  1  0
 20 51  1  0
 21 52  1  0
 24 53  1  0
 24 54  1  0
 25 55  1  0
 25 56  1  0
 28 57  1  0
 31 58  1  0
 32 59  1  0
 32 60  1  0
 33 61  1  0
 33 62  1  0
 34 63  1  0
 34 64  1  0
 35 65  1  0
M  END
>  <meeko>  (517) 
{"is_sidechain": [true], "free_energy": -12.25, "intermolecular_energy": 0.37, "internal_energy": -12.62, "cluster_size": 15, "cluster_id": 1, "rank_in_cluster": 1}

>  <_RMSD_MCS_to_ref>  (517) 
0.7193400621402916

$$$$
ligand
     RDKit          3D

 64 68  0  0  0  0  0  0  0  0999 V2000
   24.8540    9.4020    7.6050 C   0  0  0  0  0  0  0  0  0  0  0  0
   25.5230   10.7550    7.4270 C   0  0  0  0  0  0  0  0  0  0  0  0
   25.2070   11.3730    6.1090 C   0  0  0  0  0  0  0  0  0  0  0  0
   24.3700   12.4320    5.8210 C   0  0  0  0  0  0  0  0  0  0  0  0
   24.4510   12.5720    4.4630 N   0  0  0  0  0  0  0  0  0  0  0  0
   23.8520   13.8670    3.5690 S   0  0  0  0  0  6  0  0  0  0  0  0
   22.4900   14.0690    4.0260 O   0  0  0  0  0  0  0  0  0  0  0  0
   24.1740   13.5700    2.1870 O   0  0  0  0  0  0  0  0  0  0  0  0
   24.8350   15.2400    4.1120 C   0  0  0  0  0  0  0  0  0  0  0  0
   25.1710   16.2340    3.1920 C   0  0  0  0  0  0  0  0  0  0  0  0
   25.9250   17.3270    3.6090 C   0  0  0  0  0  0  0  0  0  0  0  0
   26.3550   17.4270    4.9410 C   0  0  0  0  0  0  0  0  0  0  0  0
   26.0130   16.4280    5.8790 C   0  0  0  0  0  0  0  0  0  0  0  0
   25.2720   15.3140    5.4410 C   0  0  0  0  0  0  0  0  0  0  0  0
   26.5110   16.5340    7.3250 C   0  0  2  0  0  0  0  0  0  0  0  0
   25.4880   16.0500    8.3900 C   0  0  0  0  0  0  0  0  0  0  0  0
   24.6830   15.1580    8.1220 O   0  0  0  0  0  0  0  0  0  0  0  0
   25.6170   16.6960    9.6090 N   0  0  0  0  0  0  0  0  0  0  0  0
   24.8080   16.5490   10.7480 C   0  0  0  0  0  0  0  0  0  0  0  0
   23.6430   15.7860   10.7870 C   0  0  0  0  0  0  0  0  0  0  0  0
   22.8830   15.7190   11.9570 C   0  0  0  0  0  0  0  0  0  0  0  0
   23.2660   16.4360   13.0910 C   0  0  0  0  0  0  0  0  0  0  0  0
   24.4260   17.2180   13.0710 C   0  0  0  0  0  0  0  0  0  0  0  0
   24.7750   18.1090   14.2560 C   0  0  1  0  0  0  0  0  0  0  0  0
   25.9560   17.5450   15.0560 C   0  0  0  0  0  0  0  0  0  0  0  0
   26.4480   18.5700   16.0630 C   0  0  0  0  0  0  0  0  0  0  0  0
   26.8960   19.8200   15.3480 C   0  0  0  0  0  0  0  0  0  0  0  0
   27.8050   20.5290   15.7680 O   0  0  0  0  0  0  0  0  0  0  0  0
   26.1690   20.1530   14.2350 N   0  0  0  0  0  0  0  0  0  0  0  0
   25.0330   19.5390   13.7720 C   0  0  0  0  0  0  0  0  0  0  0  0
   24.2620   20.1330   13.0190 O   0  0  0  0  0  0  0  0  0  0  0  0
   25.2030   17.2430   11.8980 C   0  0  0  0  0  0  0  0  0  0  0  0
   26.8860   17.9220    7.6970 N   0  0  0  0  0  0  0  0  0  0  0  0
   27.8300   18.4600    6.7190 C   0  0  0  0  0  0  0  0  0  0  0  0
   27.1410   18.6460    5.3670 C   0  0  0  0  0  0  0  0  0  0  0  0
   25.3230   11.6510    3.9780 C   0  0  0  0  0  0  0  0  0  0  0  0
   25.8020   10.9040    4.9550 N   0  0  0  0  0  0  0  0  0  0  0  0
   24.7464    9.1845    8.6779 H   0  0  0  0  0  0  0  0  0  0  0  0
   23.8606    9.4192    7.1330 H   0  0  0  0  0  0  0  0  0  0  0  0
   25.4708    8.6230    7.1330 H   0  0  0  0  0  0  0  0  0  0  0  0
   25.1774   11.4282    8.2253 H   0  0  0  0  0  0  0  0  0  0  0  0
   26.6112   10.6011    7.4742 H   0  0  0  0  0  0  0  0  0  0  0  0
   23.7722   13.0291    6.5254 H   0  0  0  0  0  0  0  0  0  0  0  0
   24.8424   16.1543    2.1452 H   0  0  0  0  0  0  0  0  0  0  0  0
   26.1855   18.1175    2.8898 H   0  0  0  0  0  0  0  0  0  0  0  0
   25.0359   14.5008    6.1431 H   0  0  0  0  0  0  0  0  0  0  0  0
   27.3875   15.8694    7.3339 H   0  0  0  0  0  0  0  0  0  0  0  0
   26.3981   17.3625    9.6895 H   0  0  0  0  0  0  0  0  0  0  0  0
   23.3201   15.2337    9.8922 H   0  0  0  0  0  0  0  0  0  0  0  0
   21.9764   15.0967   11.9846 H   0  0  0  0  0  0  0  0  0  0  0  0
   22.6540   16.3863   14.0037 H   0  0  0  0  0  0  0  0  0  0  0  0
   23.9192   18.1319   14.9467 H   0  0  0  0  0  0  0  0  0  0  0  0
   25.6333   16.6385   15.5891 H   0  0  0  0  0  0  0  0  0  0  0  0
   26.7749   17.3030   14.3626 H   0  0  0  0  0  0  0  0  0  0  0  0
   25.6321   18.8197   16.7572 H   0  0  0  0  0  0  0  0  0  0  0  0
   27.2969   18.1492   16.6219 H   0  0  0  0  0  0  0  0  0  0  0  0
   26.5137   20.9529   13.6852 H   0  0  0  0  0  0  0  0  0  0  0  0
   26.1397   17.8195   11.8843 H   0  0  0  0  0  0  0  0  0  0  0  0
   26.0411   18.5108    7.7162 H   0  0  0  0  0  0  0  0  0  0  0  0
   28.2050   19.4318    7.0725 H   0  0  0  0  0  0  0  0  0  0  0  0
   28.6661   17.7549    6.6017 H   0  0  0  0  0  0  0  0  0  0  0  0
   26.4532   19.5016    5.4371 H   0  0  0  0  0  0  0  0  0  0  0  0
   27.9253   18.8157    4.6146 H   0  0  0  0  0  0  0  0  0  0  0  0
   25.5929   11.5425    2.9172 H   0  0  0  0  0  0  0  0  0  0  0  0
  1  2  1  0
  2  3  1  0
  3  4  2  0
  4  5  1  0
  5  6  1  0
  6  7  2  0
  6  8  2  0
  6  9  1  0
  9 10  2  0
 10 11  1  0
 11 12  2  0
 12 13  1  0
 13 14  2  0
 13 15  1  0
 15 16  1  0
 16 17  2  0
 16 18  1  0
 18 19  1  0
 19 20  2  0
 20 21  1  0
 21 22  2  0
 22 23  1  0
 23 24  1  0
 24 25  1  0
 25 26  1  0
 26 27  1  0
 27 28  2  0
 27 29  1  0
 29 30  1  0
 30 31  2  0
 23 32  2  0
 15 33  1  0
 33 34  1  0
 34 35  1  0
  5 36  1  0
 36 37  2  0
 37  3  1  0
 14  9  1  0
 32 19  1  0
 35 12  1  0
 30 24  1  0
  1 38  1  0
  1 39  1  0
  1 40  1  0
  2 41  1  0
  2 42  1  0
  4 43  1  0
 10 44  1  0
 11 45  1  0
 14 46  1  0
 15 47  1  6
 18 48  1  0
 20 49  1  0
 21 50  1  0
 22 51  1  0
 24 52  1  1
 25 53  1  0
 25 54  1  0
 26 55  1  0
 26 56  1  0
 29 57  1  0
 32 58  1  0
 33 59  1  0
 34 60  1  0
 34 61  1  0
 35 62  1  0
 35 63  1  0
 36 64  1  0
M  END
>  <meeko>  (518) 
{"is_sidechain": [true], "free_energy": -12.25, "intermolecular_energy": 0.0, "internal_energy": -12.25, "cluster_size": 3, "cluster_id": 2, "rank_in_cluster": 1}

>  <_RMSD_MCS_to_ref>  (518) 
0.9436795669081748

$$$$
ligand
     RDKit          3D

 49 52  0  0  0  0  0  0  0  0999 V2000
   24.8710    9.6160    7.7820 C   0  0  0  0  0  0  0  0  0  0  0  0
   25.4240   10.9650    7.3490 C   0  0  0  0  0  0  0  0  0  0  0  0
   26.5800   11.3930    8.1830 C   0  0  0  0  0  0  0  0  0  0  0  0
   27.6260   12.2320    7.8530 C   0  0  0  0  0  0  0  0  0  0  0  0
   28.4060   12.2500    8.9740 N   0  0  0  0  0  0  0  0  0  0  0  0
   29.7090   13.2800    9.2510 S   0  0  0  0  0  6  0  0  0  0  0  0
   30.6530   12.9890    8.1900 O   0  0  0  0  0  0  0  0  0  0  0  0
   30.0660   13.0780   10.6460 O   0  0  0  0  0  0  0  0  0  0  0  0
   29.1440   14.8020    9.0570 O   0  0  0  0  0  0  0  0  0  0  0  0
   27.9390   15.2090    9.4660 C   0  0  0  0  0  0  0  0  0  0  0  0
   27.6200   16.0810   10.4850 C   0  0  0  0  0  0  0  0  0  0  0  0
   26.2010   16.2170   10.5410 C   0  0  0  0  0  0  0  0  0  0  0  0
   25.2910   16.9330   11.3380 C   0  0  0  0  0  0  0  0  0  0  0  0
   25.7230   17.8210   12.4580 C   0  0  0  0  0  0  0  0  0  0  0  0
   26.8410   18.3150   12.5210 O   0  0  0  0  0  0  0  0  0  0  0  0
   24.7570   18.0240   13.4210 N   0  0  0  0  0  0  0  0  0  0  0  0
   25.0260   18.7160   14.6660 C   0  0  1  0  0  0  0  0  0  0  0  0
   26.0410   17.9680   15.5260 C   0  0  0  0  0  0  0  0  0  0  0  0
   26.2930   18.7470   16.8080 C   0  0  0  0  0  0  0  0  0  0  0  0
   26.7400   20.1580   16.5130 C   0  0  0  0  0  0  0  0  0  0  0  0
   27.5270   20.7650   17.2340 O   0  0  0  0  0  0  0  0  0  0  0  0
   26.1960   20.7560   15.4040 N   0  0  0  0  0  0  0  0  0  0  0  0
   25.5650   20.1190   14.3640 C   0  0  0  0  0  0  0  0  0  0  0  0
   25.4330   20.6740   13.2730 O   0  0  0  0  0  0  0  0  0  0  0  0
   23.9430   16.8370   11.1130 N   0  0  0  0  0  0  0  0  0  0  0  0
   23.5050   16.0450   10.1130 C   0  0  0  0  0  0  0  0  0  0  0  0
   24.3210   15.3020    9.2740 C   0  0  0  0  0  0  0  0  0  0  0  0
   25.6880   15.4120    9.5210 C   0  0  0  0  0  0  0  0  0  0  0  0
   26.7570   14.8210    8.8830 N   0  0  0  0  0  0  0  0  0  0  0  0
   27.8020   11.5230    9.9480 C   0  0  0  0  0  0  0  0  0  0  0  0
   26.7020   10.9630    9.4900 N   0  0  0  0  0  0  0  0  0  0  0  0
   24.8497    9.5640    8.8806 H   0  0  0  0  0  0  0  0  0  0  0  0
   23.8507    9.4948    7.3893 H   0  0  0  0  0  0  0  0  0  0  0  0
   25.5127    8.8135    7.3893 H   0  0  0  0  0  0  0  0  0  0  0  0
   25.7504   10.8941    6.3009 H   0  0  0  0  0  0  0  0  0  0  0  0
   24.6255   11.7118    7.4702 H   0  0  0  0  0  0  0  0  0  0  0  0
   27.7928   12.7639    6.9047 H   0  0  0  0  0  0  0  0  0  0  0  0
   28.3397   16.5875   11.1449 H   0  0  0  0  0  0  0  0  0  0  0  0
   23.8055   17.6694   13.2486 H   0  0  0  0  0  0  0  0  0  0  0  0
   24.0810   18.7755   15.2259 H   0  0  0  0  0  0  0  0  0  0  0  0
   25.6472   16.9713   15.7742 H   0  0  0  0  0  0  0  0  0  0  0  0
   26.9844   17.8622   14.9704 H   0  0  0  0  0  0  0  0  0  0  0  0
   25.3635   18.7809   17.3953 H   0  0  0  0  0  0  0  0  0  0  0  0
   27.0907   18.2405   17.3711 H   0  0  0  0  0  0  0  0  0  0  0  0
   26.2680   21.7819   15.3462 H   0  0  0  0  0  0  0  0  0  0  0  0
   22.4187   15.9840    9.9510 H   0  0  0  0  0  0  0  0  0  0  0  0
   23.9175   14.6697    8.4694 H   0  0  0  0  0  0  0  0  0  0  0  0
   26.6806   14.1786    8.0815 H   0  0  0  0  0  0  0  0  0  0  0  0
   28.1787   11.4166   10.9760 H   0  0  0  0  0  0  0  0  0  0  0  0
  1  2  1  0
  2  3  1  0
  3  4  2  0
  4  5  1  0
  5  6  1  0
  6  7  2  0
  6  8  2  0
  6  9  1  0
  9 10  1  0
 10 11  2  0
 11 12  1  0
 12 13  2  0
 13 14  1  0
 14 15  2  0
 14 16  1  0
 16 17  1  0
 17 18  1  0
 18 19  1  0
 19 20  1  0
 20 21  2  0
 20 22  1  0
 22 23  1  0
 23 24  2  0
 13 25  1  0
 25 26  2  0
 26 27  1  0
 27 28  2  0
 28 29  1  0
  5 30  1  0
 30 31  2  0
 31  3  1  0
 29 10  1  0
 28 12  1  0
 23 17  1  0
  1 32  1  0
  1 33  1  0
  1 34  1  0
  2 35  1  0
  2 36  1  0
  4 37  1  0
 11 38  1  0
 16 39  1  0
 17 40  1  1
 18 41  1  0
 18 42  1  0
 19 43  1  0
 19 44  1  0
 22 45  1  0
 26 46  1  0
 27 47  1  0
 29 48  1  0
 30 49  1  0
M  END
>  <meeko>  (519) 
{"is_sidechain": [true], "free_energy": -12.25, "intermolecular_energy": 0.0, "internal_energy": -12.25, "cluster_size": 14, "cluster_id": 1, "rank_in_cluster": 1}

>  <_RMSD_MCS_to_ref>  (519) 
0.6387185956620062

$$$$
ligand
     RDKit          3D

 57 61  0  0  0  0  0  0  0  0999 V2000
   24.8540    9.4020    7.6050 C   0  0  0  0  0  0  0  0  0  0  0  0
   25.5230   10.7550    7.4270 C   0  0  0  0  0  0  0  0  0  0  0  0
   24.9100   11.5450    6.3240 C   0  0  0  0  0  0  0  0  0  0  0  0
   25.1610   12.8490    5.9470 C   0  0  0  0  0  0  0  0  0  0  0  0
   24.3160   13.0630    4.8950 N   0  0  0  0  0  0  0  0  0  0  0  0
   24.3600   14.3920    3.8620 S   0  0  0  0  0  6  0  0  0  0  0  0
   22.9750   14.7980    3.7200 O   0  0  0  0  0  0  0  0  0  0  0  0
   25.1830   14.0010    2.7350 O   0  0  0  0  0  0  0  0  0  0  0  0
   25.2290   15.6270    4.7860 C   0  0  0  0  0  0  0  0  0  0  0  0
   25.9060   16.6460    4.1160 C   0  0  0  0  0  0  0  0  0  0  0  0
   26.5500   17.6320    4.8570 C   0  0  0  0  0  0  0  0  0  0  0  0
   26.5070   17.5970    6.2550 C   0  0  0  0  0  0  0  0  0  0  0  0
   25.8380   16.5710    6.9390 C   0  0  0  0  0  0  0  0  0  0  0  0
   25.7690   16.6250    8.3420 N   0  0  0  0  0  0  0  0  0  0  0  0
   24.7830   16.2170    9.2540 C   0  0  0  0  0  0  0  0  0  0  0  0
   23.6470   15.4740    8.8940 C   0  0  0  0  0  0  0  0  0  0  0  0
   22.6950   15.0520    9.8500 C   0  0  0  0  0  0  0  0  0  0  0  0
   22.8500   15.3670   11.2010 C   0  0  0  0  0  0  0  0  0  0  0  0
   23.9620   16.1070   11.5440 C   0  0  0  0  0  0  0  0  0  0  0  0
   24.8910   16.5200   10.6040 C   0  0  0  0  0  0  0  0  0  0  0  0
   25.9120   17.2870   11.3150 C   0  0  0  0  0  0  0  0  0  0  0  0
   26.8500   17.8400   10.7690 O   0  0  0  0  0  0  0  0  0  0  0  0
   25.5850   17.2540   12.6440 N   0  0  0  0  0  0  0  0  0  0  0  0
   26.2910   18.0370   13.6470 C   0  0  2  0  0  0  0  0  0  0  0  0
   25.9940   17.6280   15.0870 C   0  0  0  0  0  0  0  0  0  0  0  0
   26.8170   18.4920   16.0310 C   0  0  0  0  0  0  0  0  0  0  0  0
   26.5490   19.9630   15.8050 C   0  0  0  0  0  0  0  0  0  0  0  0
   26.6780   20.7970   16.6950 O   0  0  0  0  0  0  0  0  0  0  0  0
   26.2070   20.3360   14.5290 N   0  0  0  0  0  0  0  0  0  0  0  0
   25.9730   19.5220   13.4440 C   0  0  0  0  0  0  0  0  0  0  0  0
   25.5940   20.0010   12.3760 O   0  0  0  0  0  0  0  0  0  0  0  0
   24.3960   16.6090   12.8470 C   0  0  0  0  0  0  0  0  0  0  0  0
   23.7650   16.4690   13.8760 O   0  0  0  0  0  0  0  0  0  0  0  0
   25.2090   15.5780    6.1850 C   0  0  0  0  0  0  0  0  0  0  0  0
   23.6170   11.9250    4.6490 C   0  0  0  0  0  0  0  0  0  0  0  0
   23.9600   10.9780    5.4970 N   0  0  0  0  0  0  0  0  0  0  0  0
   24.7464    9.1845    8.6779 H   0  0  0  0  0  0  0  0  0  0  0  0
   23.8606    9.4192    7.1330 H   0  0  0  0  0  0  0  0  0  0  0  0
   25.4708    8.6230    7.1330 H   0  0  0  0  0  0  0  0  0  0  0  0
   25.4285   11.3229    8.3643 H   0  0  0  0  0  0  0  0  0  0  0  0
   26.5780   10.5788    7.1701 H   0  0  0  0  0  0  0  0  0  0  0  0
   25.8778   13.5548    6.3921 H   0  0  0  0  0  0  0  0  0  0  0  0
   25.9304   16.6698    3.0165 H   0  0  0  0  0  0  0  0  0  0  0  0
   27.0930   18.4392    4.3436 H   0  0  0  0  0  0  0  0  0  0  0  0
   27.0079   18.3901    6.8295 H   0  0  0  0  0  0  0  0  0  0  0  0
   26.5995   17.0433    8.7848 H   0  0  0  0  0  0  0  0  0  0  0  0
   23.4934   15.2126    7.8366 H   0  0  0  0  0  0  0  0  0  0  0  0
   21.8212   14.4681    9.5252 H   0  0  0  0  0  0  0  0  0  0  0  0
   22.1199   15.0405   11.9562 H   0  0  0  0  0  0  0  0  0  0  0  0
   27.3631   17.8399   13.4998 H   0  0  0  0  0  0  0  0  0  0  0  0
   24.9236   17.7701   15.2968 H   0  0  0  0  0  0  0  0  0  0  0  0
   26.2546   16.5692   15.2323 H   0  0  0  0  0  0  0  0  0  0  0  0
   26.5576   18.2360   17.0688 H   0  0  0  0  0  0  0  0  0  0  0  0
   27.8826   18.2997   15.8371 H   0  0  0  0  0  0  0  0  0  0  0  0
   26.1142   21.3483   14.3633 H   0  0  0  0  0  0  0  0  0  0  0  0
   24.6936   14.7505    6.6945 H   0  0  0  0  0  0  0  0  0  0  0  0
   22.8679   11.8103    3.8517 H   0  0  0  0  0  0  0  0  0  0  0  0
  1  2  1  0
  2  3  1  0
  3  4  2  0
  4  5  1  0
  5  6  1  0
  6  7  2  0
  6  8  2  0
  6  9  1  0
  9 10  2  0
 10 11  1  0
 11 12  2  0
 12 13  1  0
 13 14  1  0
 14 15  1  0
 15 16  2  0
 16 17  1  0
 17 18  2  0
 18 19  1  0
 19 20  2  0
 20 21  1  0
 21 22  2  0
 21 23  1  0
 23 24  1  0
 24 25  1  0
 25 26  1  0
 26 27  1  0
 27 28  2  0
 27 29  1  0
 29 30  1  0
 30 31  2  0
 23 32  1  0
 32 33  2  0
 13 34  2  0
  5 35  1  0
 35 36  2  0
 36  3  1  0
 34  9  1  0
 20 15  1  0
 30 24  1  0
 32 19  1  0
  1 37  1  0
  1 38  1  0
  1 39  1  0
  2 40  1  0
  2 41  1  0
  4 42  1  0
 10 43  1  0
 11 44  1  0
 12 45  1  0
 14 46  1  0
 16 47  1  0
 17 48  1  0
 18 49  1  0
 24 50  1  6
 25 51  1  0
 25 52  1  0
 26 53  1  0
 26 54  1  0
 29 55  1  0
 34 56  1  0
 35 57  1  0
M  END
>  <meeko>  (520) 
{"is_sidechain": [true], "free_energy": -12.24, "intermolecular_energy": 0.0, "internal_energy": -12.24, "cluster_size": 4, "cluster_id": 2, "rank_in_cluster": 1}

>  <_RMSD_MCS_to_ref>  (520) 
1.1999156914828082

$$$$
ligand
     RDKit          3D

 60 65  0  0  0  0  0  0  0  0999 V2000
   24.8710    9.6160    7.7820 C   0  0  0  0  0  0  0  0  0  0  0  0
   25.4240   10.9650    7.3490 C   0  0  0  0  0  0  0  0  0  0  0  0
   25.0040   11.3280    5.9680 C   0  0  0  0  0  0  0  0  0  0  0  0
   25.5110   12.3040    5.1330 C   0  0  0  0  0  0  0  0  0  0  0  0
   24.7790   12.1770    3.9870 N   0  0  0  0  0  0  0  0  0  0  0  0
   24.7770   13.2610    2.6950 S   0  0  0  0  0  6  0  0  0  0  0  0
   23.5360   12.9930    1.9940 O   0  0  0  0  0  0  0  0  0  0  0  0
   26.0710   13.0760    2.0590 O   0  0  0  0  0  0  0  0  0  0  0  0
   24.7220   14.7480    3.3650 O   0  0  0  0  0  0  0  0  0  0  0  0
   25.6520   15.1020    4.3220 C   0  0  0  0  0  0  0  0  0  0  0  0
   25.1700   15.2970    5.6220 C   0  0  0  0  0  0  0  0  0  0  0  0
   26.0200   15.6220    6.6880 C   0  0  0  0  0  0  0  0  0  0  0  0
   25.4830   15.8390    8.0430 C   0  0  0  0  0  0  0  0  0  0  0  0
   24.3180   15.1470    8.4760 C   0  0  0  0  0  0  0  0  0  0  0  0
   23.7810   15.3330    9.7570 C   0  0  0  0  0  0  0  0  0  0  0  0
   24.4330   16.2190   10.5890 C   0  0  0  0  0  0  0  0  0  0  0  0
   25.5630   16.9010   10.1850 C   0  0  0  0  0  0  0  0  0  0  0  0
   26.1100   16.7380    8.9260 C   0  0  0  0  0  0  0  0  0  0  0  0
   25.9820   17.7520   11.2950 C   0  0  0  0  0  0  0  0  0  0  0  0
   26.9350   18.5060   11.2600 O   0  0  0  0  0  0  0  0  0  0  0  0
   25.1120   17.5150   12.3260 N   0  0  0  0  0  0  0  0  0  0  0  0
   25.1210   18.2900   13.5570 C   0  0  2  0  0  0  0  0  0  0  0  0
   25.6570   19.7100   13.4020 C   0  0  0  0  0  0  0  0  0  0  0  0
   25.5780   20.4230   14.7430 C   0  0  0  0  0  0  0  0  0  0  0  0
   26.3240   19.6620   15.8140 C   0  0  0  0  0  0  0  0  0  0  0  0
   26.8240   20.2190   16.7870 O   0  0  0  0  0  0  0  0  0  0  0  0
   26.3690   18.2950   15.6800 N   0  0  0  0  0  0  0  0  0  0  0  0
   25.9230   17.5360   14.6220 C   0  0  0  0  0  0  0  0  0  0  0  0
   26.1230   16.3230   14.5990 O   0  0  0  0  0  0  0  0  0  0  0  0
   24.1280   16.6380   11.9560 C   0  0  0  0  0  0  0  0  0  0  0  0
   23.1590   16.2600   12.5850 O   0  0  0  0  0  0  0  0  0  0  0  0
   27.4010   15.7330    6.4380 C   0  0  0  0  0  0  0  0  0  0  0  0
   27.9170   15.5130    5.1450 C   0  0  0  0  0  0  0  0  0  0  0  0
   29.2290   15.5350    4.5970 C   0  0  0  0  0  0  0  0  0  0  0  0
   29.1290   15.2270    3.2610 C   0  0  0  0  0  0  0  0  0  0  0  0
   27.8060   15.0170    2.9770 N   0  0  0  0  0  0  0  0  0  0  0  0
   27.0350   15.1990    4.1070 C   0  0  0  0  0  0  0  0  0  0  0  0
   23.8280   11.2250    4.1690 C   0  0  0  0  0  0  0  0  0  0  0  0
   23.9540   10.6700    5.3570 N   0  0  0  0  0  0  0  0  0  0  0  0
   24.8497    9.5640    8.8806 H   0  0  0  0  0  0  0  0  0  0  0  0
   23.8507    9.4948    7.3893 H   0  0  0  0  0  0  0  0  0  0  0  0
   25.5127    8.8135    7.3893 H   0  0  0  0  0  0  0  0  0  0  0  0
   25.0607   11.7364    8.0440 H   0  0  0  0  0  0  0  0  0  0  0  0
   26.5220   10.8996    7.3617 H   0  0  0  0  0  0  0  0  0  0  0  0
   26.3194   13.0199    5.3428 H   0  0  0  0  0  0  0  0  0  0  0  0
   24.0917   15.1920    5.8125 H   0  0  0  0  0  0  0  0  0  0  0  0
   23.8249   14.4464    7.7861 H   0  0  0  0  0  0  0  0  0  0  0  0
   22.8788   14.7958   10.0847 H   0  0  0  0  0  0  0  0  0  0  0  0
   27.0091   17.2947    8.6231 H   0  0  0  0  0  0  0  0  0  0  0  0
   24.0704   18.4041   13.8624 H   0  0  0  0  0  0  0  0  0  0  0  0
   26.7037   19.6736   13.0657 H   0  0  0  0  0  0  0  0  0  0  0  0
   25.0553   20.2532   12.6584 H   0  0  0  0  0  0  0  0  0  0  0  0
   26.0194   21.4255   14.6424 H   0  0  0  0  0  0  0  0  0  0  0  0
   24.5206   20.4913   15.0382 H   0  0  0  0  0  0  0  0  0  0  0  0
   26.7866   17.7762   16.4657 H   0  0  0  0  0  0  0  0  0  0  0  0
   28.0840   15.9940    7.2598 H   0  0  0  0  0  0  0  0  0  0  0  0
   30.1570   15.7583    5.1438 H   0  0  0  0  0  0  0  0  0  0  0  0
   29.9633   15.1610    2.5471 H   0  0  0  0  0  0  0  0  0  0  0  0
   27.4380   14.7594    2.0501 H   0  0  0  0  0  0  0  0  0  0  0  0
   23.0605   10.9552    3.4286 H   0  0  0  0  0  0  0  0  0  0  0  0
  1  2  1  0
  2  3  1  0
  3  4  2  0
  4  5  1  0
  5  6  1  0
  6  7  2  0
  6  8  2  0
  6  9  1  0
  9 10  1  0
 10 11  2  0
 11 12  1  0
 12 13  1  0
 13 14  2  0
 14 15  1  0
 15 16  2  0
 16 17  1  0
 17 18  2  0
 17 19  1  0
 19 20  2  0
 19 21  1  0
 21 22  1  0
 22 23  1  0
 23 24  1  0
 24 25  1  0
 25 26  2  0
 25 27  1  0
 27 28  1  0
 28 29  2  0
 21 30  1  0
 30 31  2  0
 12 32  2  0
 32 33  1  0
 33 34  1  0
 34 35  2  0
 35 36  1  0
 36 37  1  0
  5 38  1  0
 38 39  2  0
 39  3  1  0
 37 10  1  0
 18 13  1  0
 28 22  1  0
 37 33  2  0
 30 16  1  0
  1 40  1  0
  1 41  1  0
  1 42  1  0
  2 43  1  0
  2 44  1  0
  4 45  1  0
 11 46  1  0
 14 47  1  0
 15 48  1  0
 18 49  1  0
 22 50  1  1
 23 51  1  0
 23 52  1  0
 24 53  1  0
 24 54  1  0
 27 55  1  0
 32 56  1  0
 34 57  1  0
 35 58  1  0
 36 59  1  0
 38 60  1  0
M  END
>  <meeko>  (521) 
{"is_sidechain": [true], "free_energy": -12.24, "intermolecular_energy": 0.0, "internal_energy": -12.24, "cluster_size": 6, "cluster_id": 1, "rank_in_cluster": 1}

>  <_RMSD_MCS_to_ref>  (521) 
1.7824995017346315

$$$$
ligand
     RDKit          3D

 55 59  0  0  0  0  0  0  0  0999 V2000
   24.8540    9.4020    7.6050 C   0  0  0  0  0  0  0  0  0  0  0  0
   25.5230   10.7550    7.4270 C   0  0  0  0  0  0  0  0  0  0  0  0
   26.9770   10.7090    7.7400 C   0  0  0  0  0  0  0  0  0  0  0  0
   27.8470   11.7540    7.9830 C   0  0  0  0  0  0  0  0  0  0  0  0
   29.0540   11.1450    8.1810 N   0  0  0  0  0  0  0  0  0  0  0  0
   30.4530   11.8920    8.7520 S   0  0  0  0  0  6  0  0  0  0  0  0
   31.2840   10.8050    9.2320 O   0  0  0  0  0  0  0  0  0  0  0  0
   30.8820   12.7550    7.6670 O   0  0  0  0  0  0  0  0  0  0  0  0
   29.9880   12.8140   10.0120 O   0  0  0  0  0  0  0  0  0  0  0  0
   29.3760   14.0250    9.8390 C   0  0  0  0  0  0  0  0  0  0  0  0
   29.9790   15.2020    9.4200 C   0  0  0  0  0  0  0  0  0  0  0  0
   29.3150   16.3720    9.2730 N   0  0  0  0  0  0  0  0  0  0  0  0
   27.9940   16.3670    9.5690 C   0  0  0  0  0  0  0  0  0  0  0  0
   27.2800   15.2470    9.9960 C   0  0  0  0  0  0  0  0  0  0  0  0
   25.8420   15.3140   10.2770 C   0  0  0  0  0  0  0  0  0  0  0  0
   24.9300   14.5630    9.5020 C   0  0  0  0  0  0  0  0  0  0  0  0
   23.5410   14.5920    9.7420 C   0  0  0  0  0  0  0  0  0  0  0  0
   23.0160   15.3760   10.7670 C   0  0  0  0  0  0  0  0  0  0  0  0
   23.9120   16.1120   11.5180 C   0  0  0  0  0  0  0  0  0  0  0  0
   25.2810   16.0880   11.2900 C   0  0  0  0  0  0  0  0  0  0  0  0
   25.8820   16.9920   12.2820 C   0  0  0  0  0  0  0  0  0  0  0  0
   27.0720   17.2060   12.4160 O   0  0  0  0  0  0  0  0  0  0  0  0
   24.8540   17.5290   13.0140 N   0  0  0  0  0  0  0  0  0  0  0  0
   25.0820   18.3410   14.2000 C   0  0  1  0  0  0  0  0  0  0  0  0
   25.9460   17.6740   15.2670 C   0  0  0  0  0  0  0  0  0  0  0  0
   26.0770   18.6110   16.4600 C   0  0  0  0  0  0  0  0  0  0  0  0
   26.6410   19.9500   16.0460 C   0  0  0  0  0  0  0  0  0  0  0  0
   27.2910   20.6530   16.8140 O   0  0  0  0  0  0  0  0  0  0  0  0
   26.3440   20.3780   14.7760 N   0  0  0  0  0  0  0  0  0  0  0  0
   25.7020   19.6780   13.7790 C   0  0  0  0  0  0  0  0  0  0  0  0
   25.6020   20.1520   12.6490 O   0  0  0  0  0  0  0  0  0  0  0  0
   23.6510   17.0030   12.6440 C   0  0  0  0  0  0  0  0  0  0  0  0
   22.5520   17.1780   13.1320 O   0  0  0  0  0  0  0  0  0  0  0  0
   28.0080   14.0570   10.1160 C   0  0  0  0  0  0  0  0  0  0  0  0
   28.8850    9.7990    8.1400 C   0  0  0  0  0  0  0  0  0  0  0  0
   27.6360    9.5000    7.8460 N   0  0  0  0  0  0  0  0  0  0  0  0
   24.7464    9.1845    8.6779 H   0  0  0  0  0  0  0  0  0  0  0  0
   23.8606    9.4192    7.1330 H   0  0  0  0  0  0  0  0  0  0  0  0
   25.4708    8.6230    7.1330 H   0  0  0  0  0  0  0  0  0  0  0  0
   25.3954   11.0787    6.3835 H   0  0  0  0  0  0  0  0  0  0  0  0
   25.0494   11.4603    8.1258 H   0  0  0  0  0  0  0  0  0  0  0  0
   27.6201   12.8300    8.0108 H   0  0  0  0  0  0  0  0  0  0  0  0
   31.0556   15.1832    9.1950 H   0  0  0  0  0  0  0  0  0  0  0  0
   27.4441   17.3140    9.4654 H   0  0  0  0  0  0  0  0  0  0  0  0
   25.3161   13.9355    8.6852 H   0  0  0  0  0  0  0  0  0  0  0  0
   22.8663   13.9907    9.1149 H   0  0  0  0  0  0  0  0  0  0  0  0
   21.9353   15.4076   10.9695 H   0  0  0  0  0  0  0  0  0  0  0  0
   24.0993   18.4891   14.6716 H   0  0  0  0  0  0  0  0  0  0  0  0
   25.4745   16.7333   15.5876 H   0  0  0  0  0  0  0  0  0  0  0  0
   26.9426   17.4577   14.8547 H   0  0  0  0  0  0  0  0  0  0  0  0
   25.0835   18.7632   16.9070 H   0  0  0  0  0  0  0  0  0  0  0  0
   26.7646   18.1540   17.1869 H   0  0  0  0  0  0  0  0  0  0  0  0
   26.6362   21.3372   14.5407 H   0  0  0  0  0  0  0  0  0  0  0  0
   27.4959   13.1363   10.4323 H   0  0  0  0  0  0  0  0  0  0  0  0
   29.6794    9.0612    8.3261 H   0  0  0  0  0  0  0  0  0  0  0  0
  1  2  1  0
  2  3  1  0
  3  4  2  0
  4  5  1  0
  5  6  1  0
  6  7  2  0
  6  8  2  0
  6  9  1  0
  9 10  1  0
 10 11  2  0
 11 12  1  0
 12 13  2  0
 13 14  1  0
 14 15  1  0
 15 16  2  0
 16 17  1  0
 17 18  2  0
 18 19  1  0
 19 20  2  0
 20 21  1  0
 21 22  2  0
 21 23  1  0
 23 24  1  0
 24 25  1  0
 25 26  1  0
 26 27  1  0
 27 28  2  0
 27 29  1  0
 29 30  1  0
 30 31  2  0
 23 32  1  0
 32 33  2  0
 14 34  2  0
  5 35  1  0
 35 36  2  0
 36  3  1  0
 34 10  1  0
 20 15  1  0
 30 24  1  0
 32 19  1  0
  1 37  1  0
  1 38  1  0
  1 39  1  0
  2 40  1  0
  2 41  1  0
  4 42  1  0
 11 43  1  0
 13 44  1  0
 16 45  1  0
 17 46  1  0
 18 47  1  0
 24 48  1  1
 25 49  1  0
 25 50  1  0
 26 51  1  0
 26 52  1  0
 29 53  1  0
 34 54  1  0
 35 55  1  0
M  END
>  <meeko>  (522) 
{"is_sidechain": [true], "free_energy": -12.23, "intermolecular_energy": 0.0, "internal_energy": -12.23, "cluster_size": 19, "cluster_id": 1, "rank_in_cluster": 1}

>  <_RMSD_MCS_to_ref>  (522) 
0.7570770546428327

$$$$
ligand
     RDKit          3D

 54 57  0  0  0  0  0  0  0  0999 V2000
   24.8540    9.4020    7.6050 C   0  0  0  0  0  0  0  0  0  0  0  0
   25.5230   10.7550    7.4270 C   0  0  0  0  0  0  0  0  0  0  0  0
   27.0080   10.6660    7.4890 C   0  0  0  0  0  0  0  0  0  0  0  0
   27.9450   11.6560    7.2650 C   0  0  0  0  0  0  0  0  0  0  0  0
   29.1460   11.0270    7.4310 N   0  0  0  0  0  0  0  0  0  0  0  0
   30.6490   11.7860    7.5000 S   0  0  0  0  0  6  0  0  0  0  0  0
   31.5090   10.9160    8.2770 O   0  0  0  0  0  0  0  0  0  0  0  0
   30.9430   12.1550    6.1290 O   0  0  0  0  0  0  0  0  0  0  0  0
   30.3610   13.2630    8.4370 C   0  0  0  0  0  0  0  0  0  0  0  0
   31.4410   14.0150    8.8940 C   0  0  0  0  0  0  0  0  0  0  0  0
   31.1970   15.2010    9.5820 C   0  0  0  0  0  0  0  0  0  0  0  0
   29.8830   15.6370    9.8000 C   0  0  0  0  0  0  0  0  0  0  0  0
   28.7780   14.8880    9.3560 C   0  0  0  0  0  0  0  0  0  0  0  0
   27.3800   15.3460    9.5140 C   0  0  0  0  0  0  0  0  0  0  0  0
   26.4420   15.3810    8.4830 C   0  0  0  0  0  0  0  0  0  0  0  0
   25.1350   15.7940    8.7540 C   0  0  0  0  0  0  0  0  0  0  0  0
   24.7860   16.1660   10.0470 C   0  0  0  0  0  0  0  0  0  0  0  0
   25.7720   16.1190   11.0160 C   0  0  0  0  0  0  0  0  0  0  0  0
   25.4790   16.5130   12.4330 C   0  0  0  0  0  0  0  0  0  0  0  0
   25.0290   15.7230   13.2520 O   0  0  0  0  0  0  0  0  0  0  0  0
   25.7640   17.8300   12.7070 N   0  0  0  0  0  0  0  0  0  0  0  0
   25.5420   18.4650   13.9910 C   0  0  1  0  0  0  0  0  0  0  0  0
   26.3740   17.7840   15.0690 C   0  0  0  0  0  0  0  0  0  0  0  0
   26.2080   18.5120   16.3900 C   0  0  0  0  0  0  0  0  0  0  0  0
   26.5670   19.9710   16.2580 C   0  0  0  0  0  0  0  0  0  0  0  0
   27.0710   20.6080   17.1790 O   0  0  0  0  0  0  0  0  0  0  0  0
   26.2480   20.5750   15.0680 N   0  0  0  0  0  0  0  0  0  0  0  0
   25.9110   19.9510   13.8890 C   0  0  0  0  0  0  0  0  0  0  0  0
   25.8720   20.5870   12.8340 O   0  0  0  0  0  0  0  0  0  0  0  0
   27.0530   15.7230   10.7750 N   0  0  0  0  0  0  0  0  0  0  0  0
   29.0490   13.6770    8.6880 C   0  0  0  0  0  0  0  0  0  0  0  0
   28.9240    9.7300    7.7700 C   0  0  0  0  0  0  0  0  0  0  0  0
   27.6300    9.4800    7.8270 N   0  0  0  0  0  0  0  0  0  0  0  0
   24.7464    9.1845    8.6779 H   0  0  0  0  0  0  0  0  0  0  0  0
   23.8606    9.4192    7.1330 H   0  0  0  0  0  0  0  0  0  0  0  0
   25.4708    8.6230    7.1330 H   0  0  0  0  0  0  0  0  0  0  0  0
   25.2342   11.1659    6.4484 H   0  0  0  0  0  0  0  0  0  0  0  0
   25.1911   11.4044    8.2505 H   0  0  0  0  0  0  0  0  0  0  0  0
   27.7649   12.7110    7.0108 H   0  0  0  0  0  0  0  0  0  0  0  0
   32.4721   13.6767    8.7139 H   0  0  0  0  0  0  0  0  0  0  0  0
   32.0407   15.7992    9.9566 H   0  0  0  0  0  0  0  0  0  0  0  0
   29.7119   16.5857   10.3299 H   0  0  0  0  0  0  0  0  0  0  0  0
   26.7290   15.0854    7.4631 H   0  0  0  0  0  0  0  0  0  0  0  0
   24.3864   15.8246    7.9486 H   0  0  0  0  0  0  0  0  0  0  0  0
   23.7623   16.4863   10.2909 H   0  0  0  0  0  0  0  0  0  0  0  0
   26.1617   18.4035   11.9495 H   0  0  0  0  0  0  0  0  0  0  0  0
   24.4812   18.3713   14.2666 H   0  0  0  0  0  0  0  0  0  0  0  0
   26.0403   16.7421   15.1828 H   0  0  0  0  0  0  0  0  0  0  0  0
   27.4338   17.8063   14.7751 H   0  0  0  0  0  0  0  0  0  0  0  0
   25.1609   18.4283   16.7166 H   0  0  0  0  0  0  0  0  0  0  0  0
   26.8825   18.0528   17.1277 H   0  0  0  0  0  0  0  0  0  0  0  0
   26.2623   21.6048   15.0561 H   0  0  0  0  0  0  0  0  0  0  0  0
   28.2118   13.0448    8.3574 H   0  0  0  0  0  0  0  0  0  0  0  0
   29.7139    8.9909    7.9693 H   0  0  0  0  0  0  0  0  0  0  0  0
  1  2  1  0
  2  3  1  0
  3  4  2  0
  4  5  1  0
  5  6  1  0
  6  7  2  0
  6  8  2  0
  6  9  1  0
  9 10  2  0
 10 11  1  0
 11 12  2  0
 12 13  1  0
 13 14  1  0
 14 15  2  0
 15 16  1  0
 16 17  2  0
 17 18  1  0
 18 19  1  0
 19 20  2  0
 19 21  1  0
 21 22  1  0
 22 23  1  0
 23 24  1  0
 24 25  1  0
 25 26  2  0
 25 27  1  0
 27 28  1  0
 28 29  2  0
 18 30  2  0
 13 31  2  0
  5 32  1  0
 32 33  2  0
 33  3  1  0
 31  9  1  0
 30 14  1  0
 28 22  1  0
  1 34  1  0
  1 35  1  0
  1 36  1  0
  2 37  1  0
  2 38  1  0
  4 39  1  0
 10 40  1  0
 11 41  1  0
 12 42  1  0
 15 43  1  0
 16 44  1  0
 17 45  1  0
 21 46  1  0
 22 47  1  1
 23 48  1  0
 23 49  1  0
 24 50  1  0
 24 51  1  0
 27 52  1  0
 31 53  1  0
 32 54  1  0
M  END
>  <meeko>  (523) 
{"is_sidechain": [true], "free_energy": -12.23, "intermolecular_energy": 0.0, "internal_energy": -12.23, "cluster_size": 15, "cluster_id": 1, "rank_in_cluster": 1}

>  <_RMSD_MCS_to_ref>  (523) 
0.868876797301486

$$$$
ligand
     RDKit          3D

 62 67  0  0  0  0  0  0  0  0999 V2000
   24.8710    9.6160    7.7820 C   0  0  0  0  0  0  0  0  0  0  0  0
   25.4240   10.9650    7.3490 C   0  0  0  0  0  0  0  0  0  0  0  0
   26.8380   11.1550    7.7690 C   0  0  0  0  0  0  0  0  0  0  0  0
   27.3630   12.0710    8.6610 C   0  0  0  0  0  0  0  0  0  0  0  0
   28.7030   11.8110    8.6530 N   0  0  0  0  0  0  0  0  0  0  0  0
   29.8500   12.5490    9.6400 S   0  0  0  0  0  6  0  0  0  0  0  0
   31.1460   12.2330    9.0620 O   0  0  0  0  0  0  0  0  0  0  0  0
   29.5110   12.0740   10.9700 O   0  0  0  0  0  0  0  0  0  0  0  0
   29.5900   14.1670    9.6190 O   0  0  0  0  0  0  0  0  0  0  0  0
   28.4980   14.6570    8.9390 C   0  0  0  0  0  0  0  0  0  0  0  0
   27.3380   14.8770    9.6870 C   0  0  0  0  0  0  0  0  0  0  0  0
   26.1900   15.3830    9.0720 C   0  0  0  0  0  0  0  0  0  0  0  0
   24.9820   15.6600    9.8490 C   0  0  0  0  0  0  0  0  0  0  0  0
   23.7100   15.2820    9.3780 C   0  0  0  0  0  0  0  0  0  0  0  0
   22.5380   15.5560   10.1110 C   0  0  0  0  0  0  0  0  0  0  0  0
   22.6070   16.2130   11.3370 C   0  0  0  0  0  0  0  0  0  0  0  0
   23.8620   16.5700   11.7920 C   0  0  0  0  0  0  0  0  0  0  0  0
   25.0330   16.3060   11.0790 C   0  0  0  0  0  0  0  0  0  0  0  0
   26.2120   16.8210   11.8400 C   0  0  0  0  0  0  0  0  0  0  0  0
   25.6090   17.3230   13.0690 N   0  0  0  0  0  0  0  0  0  0  0  0
   26.3220   18.1560   14.0290 C   0  0  1  0  0  0  0  0  0  0  0  0
   25.7650   19.5750   14.0980 C   0  0  0  0  0  0  0  0  0  0  0  0
   26.6130   20.4060   15.0500 C   0  0  0  0  0  0  0  0  0  0  0  0
   26.6950   19.7610   16.4130 C   0  0  0  0  0  0  0  0  0  0  0  0
   26.7300   20.4170   17.4500 O   0  0  0  0  0  0  0  0  0  0  0  0
   26.7480   18.3900   16.4420 N   0  0  0  0  0  0  0  0  0  0  0  0
   26.3150   17.5490   15.4420 C   0  0  0  0  0  0  0  0  0  0  0  0
   25.9470   16.4070   15.7090 O   0  0  0  0  0  0  0  0  0  0  0  0
   24.2250   17.2610   13.0340 C   0  0  0  0  0  0  0  0  0  0  0  0
   23.4350   17.6880   13.8540 O   0  0  0  0  0  0  0  0  0  0  0  0
   26.2300   15.6320    7.6920 C   0  0  0  0  0  0  0  0  0  0  0  0
   27.3920   15.3820    6.9390 C   0  0  0  0  0  0  0  0  0  0  0  0
   27.4370   15.6190    5.5580 C   0  0  0  0  0  0  0  0  0  0  0  0
   28.6010   15.3560    4.8460 C   0  0  0  0  0  0  0  0  0  0  0  0
   29.6860   14.8610    5.5410 C   0  0  0  0  0  0  0  0  0  0  0  0
   29.6780   14.6210    6.8720 N   0  0  0  0  0  0  0  0  0  0  0  0
   28.5510   14.8810    7.5640 C   0  0  0  0  0  0  0  0  0  0  0  0
   28.9480   10.7510    7.8430 C   0  0  0  0  0  0  0  0  0  0  0  0
   27.8360   10.3420    7.2660 N   0  0  0  0  0  0  0  0  0  0  0  0
   24.8497    9.5640    8.8806 H   0  0  0  0  0  0  0  0  0  0  0  0
   23.8507    9.4948    7.3893 H   0  0  0  0  0  0  0  0  0  0  0  0
   25.5127    8.8135    7.3893 H   0  0  0  0  0  0  0  0  0  0  0  0
   25.3679   11.0352    6.2527 H   0  0  0  0  0  0  0  0  0  0  0  0
   24.8207   11.7475    7.8324 H   0  0  0  0  0  0  0  0  0  0  0  0
   26.8250   12.8337    9.2431 H   0  0  0  0  0  0  0  0  0  0  0  0
   27.3288   14.6510   10.7635 H   0  0  0  0  0  0  0  0  0  0  0  0
   23.6291   14.7595    8.4134 H   0  0  0  0  0  0  0  0  0  0  0  0
   21.5604   15.2483    9.7114 H   0  0  0  0  0  0  0  0  0  0  0  0
   21.7009   16.4382   11.9185 H   0  0  0  0  0  0  0  0  0  0  0  0
   26.9300   16.0149   12.0515 H   0  0  0  0  0  0  0  0  0  0  0  0
   26.7842   17.5843   11.2923 H   0  0  0  0  0  0  0  0  0  0  0  0
   27.3576   18.1999   13.6609 H   0  0  0  0  0  0  0  0  0  0  0  0
   25.7885   20.0275   13.0956 H   0  0  0  0  0  0  0  0  0  0  0  0
   24.7274   19.5448   14.4619 H   0  0  0  0  0  0  0  0  0  0  0  0
   27.6279   20.5012   14.6365 H   0  0  0  0  0  0  0  0  0  0  0  0
   26.1448   21.3952   15.1604 H   0  0  0  0  0  0  0  0  0  0  0  0
   27.1463   17.9524   17.2851 H   0  0  0  0  0  0  0  0  0  0  0  0
   25.3363   16.0301    7.1892 H   0  0  0  0  0  0  0  0  0  0  0  0
   26.5512   16.0130    5.0382 H   0  0  0  0  0  0  0  0  0  0  0  0
   28.6560   15.5367    3.7623 H   0  0  0  0  0  0  0  0  0  0  0  0
   30.6089   14.6499    4.9809 H   0  0  0  0  0  0  0  0  0  0  0  0
   29.9375   10.2959    7.6891 H   0  0  0  0  0  0  0  0  0  0  0  0
  1  2  1  0
  2  3  1  0
  3  4  2  0
  4  5  1  0
  5  6  1  0
  6  7  2  0
  6  8  2  0
  6  9  1  0
  9 10  1  0
 10 11  2  0
 11 12  1  0
 12 13  1  0
 13 14  2  0
 14 15  1  0
 15 16  2  0
 16 17  1  0
 17 18  2  0
 18 19  1  0
 19 20  1  0
 20 21  1  0
 21 22  1  0
 22 23  1  0
 23 24  1  0
 24 25  2  0
 24 26  1  0
 26 27  1  0
 27 28  2  0
 20 29  1  0
 29 30  2  0
 12 31  2  0
 31 32  1  0
 32 33  2  0
 33 34  1  0
 34 35  2  0
 35 36  1  0
 36 37  2  0
  5 38  1  0
 38 39  2  0
 39  3  1  0
 37 10  1  0
 18 13  1  0
 27 21  1  0
 37 32  1  0
 29 17  1  0
  1 40  1  0
  1 41  1  0
  1 42  1  0
  2 43  1  0
  2 44  1  0
  4 45  1  0
 11 46  1  0
 14 47  1  0
 15 48  1  0
 16 49  1  0
 19 50  1  0
 19 51  1  0
 21 52  1  6
 22 53  1  0
 22 54  1  0
 23 55  1  0
 23 56  1  0
 26 57  1  0
 31 58  1  0
 33 59  1  0
 34 60  1  0
 35 61  1  0
 38 62  1  0
M  END
>  <meeko>  (524) 
{"is_sidechain": [true], "free_energy": -12.23, "intermolecular_energy": 0.0, "internal_energy": -12.23, "cluster_size": 10, "cluster_id": 1, "rank_in_cluster": 1}

>  <_RMSD_MCS_to_ref>  (524) 
1.916629941677144

$$$$
ligand
     RDKit          3D

 57 61  0  0  0  0  0  0  0  0999 V2000
   24.8540    9.4020    7.6050 C   0  0  0  0  0  0  0  0  0  0  0  0
   25.5230   10.7550    7.4270 C   0  0  0  0  0  0  0  0  0  0  0  0
   25.0600   11.4530    6.1970 C   0  0  0  0  0  0  0  0  0  0  0  0
   25.5740   12.5830    5.5920 C   0  0  0  0  0  0  0  0  0  0  0  0
   24.7740   12.7720    4.5030 N   0  0  0  0  0  0  0  0  0  0  0  0
   24.9260   14.0150    3.3910 S   0  0  0  0  0  6  0  0  0  0  0  0
   26.3470   14.1210    3.1130 O   0  0  0  0  0  0  0  0  0  0  0  0
   23.9410   13.8070    2.3520 O   0  0  0  0  0  0  0  0  0  0  0  0
   24.5310   15.5560    4.1220 C   0  0  0  0  0  0  0  0  0  0  0  0
   23.6560   16.3970    3.4960 N   0  0  0  0  0  0  0  0  0  0  0  0
   23.4630   17.5570    4.1430 N   0  0  0  0  0  0  0  0  0  0  0  0
   24.2170   17.4330    5.2380 C   0  0  0  0  0  0  0  0  0  0  0  0
   24.8820   16.1910    5.3040 C   0  0  0  0  0  0  0  0  0  0  0  0
   25.8020   15.6410    6.2780 C   0  0  0  0  0  0  0  0  0  0  0  0
   26.8380   15.1100    5.8900 O   0  0  0  0  0  0  0  0  0  0  0  0
   25.4780   15.7110    7.6160 N   0  0  0  0  0  0  0  0  0  0  0  0
   24.0840   15.3700    8.0170 C   0  0  0  0  0  0  0  0  0  0  0  0
   24.1280   15.8230    9.4020 C   0  0  0  0  0  0  0  0  0  0  0  0
   23.2920   15.8670   10.4550 N   0  0  0  0  0  0  0  0  0  0  0  0
   23.8900   16.4300   11.5380 N   0  0  0  0  0  0  0  0  0  0  0  0
   25.1440   16.7490   11.1180 C   0  0  0  0  0  0  0  0  0  0  0  0
   26.1330   17.3920   11.9900 C   0  0  0  0  0  0  0  0  0  0  0  0
   27.2140   17.8030   11.5790 O   0  0  0  0  0  0  0  0  0  0  0  0
   25.7270   17.4980   13.2980 N   0  0  0  0  0  0  0  0  0  0  0  0
   26.4690   18.2510   14.2900 C   0  0  2  0  0  0  0  0  0  0  0  0
   26.1000   17.8390   15.7110 C   0  0  0  0  0  0  0  0  0  0  0  0
   26.8930   18.6730   16.7060 C   0  0  0  0  0  0  0  0  0  0  0  0
   26.6770   20.1500   16.4770 C   0  0  0  0  0  0  0  0  0  0  0  0
   26.6830   20.9660   17.3940 O   0  0  0  0  0  0  0  0  0  0  0  0
   26.5040   20.5510   15.1770 N   0  0  0  0  0  0  0  0  0  0  0  0
   26.1830   19.7470   14.1110 C   0  0  0  0  0  0  0  0  0  0  0  0
   25.7180   20.2250   13.0780 O   0  0  0  0  0  0  0  0  0  0  0  0
   25.3070   16.3760    9.7810 C   0  0  0  0  0  0  0  0  0  0  0  0
   26.2840   16.3790    8.6920 C   0  0  0  0  0  0  0  0  0  0  0  0
   23.8140   11.8150    4.4820 C   0  0  0  0  0  0  0  0  0  0  0  0
   23.9700   10.9830    5.4920 N   0  0  0  0  0  0  0  0  0  0  0  0
   24.7464    9.1845    8.6779 H   0  0  0  0  0  0  0  0  0  0  0  0
   23.8606    9.4192    7.1330 H   0  0  0  0  0  0  0  0  0  0  0  0
   25.4708    8.6230    7.1330 H   0  0  0  0  0  0  0  0  0  0  0  0
   25.2902   11.3829    8.2997 H   0  0  0  0  0  0  0  0  0  0  0  0
   26.6059   10.5867    7.3327 H   0  0  0  0  0  0  0  0  0  0  0  0
   26.4319   13.1914    5.9143 H   0  0  0  0  0  0  0  0  0  0  0  0
   23.1874   16.1628    2.6092 H   0  0  0  0  0  0  0  0  0  0  0  0
   24.3095   18.2152    6.0058 H   0  0  0  0  0  0  0  0  0  0  0  0
   23.3381   15.9218    7.4260 H   0  0  0  0  0  0  0  0  0  0  0  0
   23.7936   14.3190    7.8720 H   0  0  0  0  0  0  0  0  0  0  0  0
   22.3228   15.5186   10.4422 H   0  0  0  0  0  0  0  0  0  0  0  0
   24.8596   17.0229   13.5858 H   0  0  0  0  0  0  0  0  0  0  0  0
   27.5382   18.0396   14.1412 H   0  0  0  0  0  0  0  0  0  0  0  0
   25.0241   18.0022   15.8718 H   0  0  0  0  0  0  0  0  0  0  0  0
   26.3365   16.7746   15.8559 H   0  0  0  0  0  0  0  0  0  0  0  0
   26.5701   18.4173   17.7260 H   0  0  0  0  0  0  0  0  0  0  0  0
   27.9621   18.4527   16.5703 H   0  0  0  0  0  0  0  0  0  0  0  0
   26.6270   21.5546   14.9807 H   0  0  0  0  0  0  0  0  0  0  0  0
   26.5758   17.4009    8.4083 H   0  0  0  0  0  0  0  0  0  0  0  0
   27.2402   15.8884    8.9264 H   0  0  0  0  0  0  0  0  0  0  0  0
   23.0166   11.7431    3.7277 H   0  0  0  0  0  0  0  0  0  0  0  0
  1  2  1  0
  2  3  1  0
  3  4  2  0
  4  5  1  0
  5  6  1  0
  6  7  2  0
  6  8  2  0
  6  9  1  0
  9 10  1  0
 10 11  1  0
 11 12  2  0
 12 13  1  0
 13 14  1  0
 14 15  2  0
 14 16  1  0
 16 17  1  0
 17 18  1  0
 18 19  1  0
 19 20  1  0
 20 21  2  0
 21 22  1  0
 22 23  2  0
 22 24  1  0
 24 25  1  0
 25 26  1  0
 26 27  1  0
 27 28  1  0
 28 29  2  0
 28 30  1  0
 30 31  1  0
 31 32  2  0
 21 33  1  0
 33 34  1  0
  5 35  1  0
 35 36  2  0
 36  3  1  0
 13  9  2  0
 34 16  1  0
 33 18  2  0
 31 25  1  0
  1 37  1  0
  1 38  1  0
  1 39  1  0
  2 40  1  0
  2 41  1  0
  4 42  1  0
 10 43  1  0
 12 44  1  0
 17 45  1  0
 17 46  1  0
 19 47  1  0
 24 48  1  0
 25 49  1  6
 26 50  1  0
 26 51  1  0
 27 52  1  0
 27 53  1  0
 30 54  1  0
 34 55  1  0
 34 56  1  0
 35 57  1  0
M  END
>  <meeko>  (525) 
{"is_sidechain": [true], "free_energy": -12.22, "intermolecular_energy": 0.0, "internal_energy": -12.22, "cluster_size": 9, "cluster_id": 2, "rank_in_cluster": 1}

>  <_RMSD_MCS_to_ref>  (525) 
0.9548044011442569

$$$$
ligand
     RDKit          3D

 52 55  0  0  0  0  0  0  0  0999 V2000
   24.8710    9.6160    7.7820 C   0  0  0  0  0  0  0  0  0  0  0  0
   25.4240   10.9650    7.3490 C   0  0  0  0  0  0  0  0  0  0  0  0
   26.5330   11.4260    8.2260 C   0  0  0  0  0  0  0  0  0  0  0  0
   27.4850   12.3950    7.9790 C   0  0  0  0  0  0  0  0  0  0  0  0
   28.2490   12.4110    9.1090 N   0  0  0  0  0  0  0  0  0  0  0  0
   29.4390   13.5410    9.5060 S   0  0  0  0  0  6  0  0  0  0  0  0
   30.4310   13.4530    8.4500 O   0  0  0  0  0  0  0  0  0  0  0  0
   29.7870   13.2150   10.8790 O   0  0  0  0  0  0  0  0  0  0  0  0
   28.7700   15.0340    9.5050 O   0  0  0  0  0  0  0  0  0  0  0  0
   27.4180   15.2110    9.6180 C   0  0  0  0  0  0  0  0  0  0  0  0
   26.6630   15.0030    8.4720 C   0  0  0  0  0  0  0  0  0  0  0  0
   25.2780   15.1580    8.5170 C   0  0  0  0  0  0  0  0  0  0  0  0
   24.6300   15.5230    9.7080 C   0  0  0  0  0  0  0  0  0  0  0  0
   23.2340   15.6770    9.7340 C   0  0  0  0  0  0  0  0  0  0  0  0
   22.5700   16.0420   10.9050 C   0  0  0  0  0  0  0  0  0  0  0  0
   23.2960   16.2650   12.0690 C   0  0  0  0  0  0  0  0  0  0  0  0
   24.6910   16.1120   12.0630 C   0  0  0  0  0  0  0  0  0  0  0  0
   25.4210   16.4200   13.3180 C   0  0  0  0  0  0  0  0  0  0  0  0
   25.9120   15.5260   13.9940 O   0  0  0  0  0  0  0  0  0  0  0  0
   25.4930   17.7530   13.6450 N   0  0  0  0  0  0  0  0  0  0  0  0
   26.2450   18.2170   14.8000 C   0  0  2  0  0  0  0  0  0  0  0  0
   25.3740   18.3260   16.0470 C   0  0  0  0  0  0  0  0  0  0  0  0
   26.2130   18.8430   17.2060 C   0  0  0  0  0  0  0  0  0  0  0  0
   26.8750   20.1550   16.8610 C   0  0  0  0  0  0  0  0  0  0  0  0
   27.0660   21.0370   17.6940 O   0  0  0  0  0  0  0  0  0  0  0  0
   27.2880   20.3150   15.5620 N   0  0  0  0  0  0  0  0  0  0  0  0
   26.8350   19.5950   14.4840 C   0  0  0  0  0  0  0  0  0  0  0  0
   26.9120   20.0450   13.3410 O   0  0  0  0  0  0  0  0  0  0  0  0
   25.3870   15.7300   10.8870 C   0  0  0  0  0  0  0  0  0  0  0  0
   26.7890   15.5330   10.8190 C   0  0  0  0  0  0  0  0  0  0  0  0
   27.7460   11.5160    9.9990 C   0  0  0  0  0  0  0  0  0  0  0  0
   26.7090   10.8880    9.4870 N   0  0  0  0  0  0  0  0  0  0  0  0
   24.8497    9.5640    8.8806 H   0  0  0  0  0  0  0  0  0  0  0  0
   23.8507    9.4948    7.3893 H   0  0  0  0  0  0  0  0  0  0  0  0
   25.5127    8.8135    7.3893 H   0  0  0  0  0  0  0  0  0  0  0  0
   25.7995   10.8796    6.3186 H   0  0  0  0  0  0  0  0  0  0  0  0
   24.6100   11.7015    7.4191 H   0  0  0  0  0  0  0  0  0  0  0  0
   27.6010   13.0133    7.0766 H   0  0  0  0  0  0  0  0  0  0  0  0
   27.1558   14.7167    7.5311 H   0  0  0  0  0  0  0  0  0  0  0  0
   24.6843   14.9919    7.6060 H   0  0  0  0  0  0  0  0  0  0  0  0
   22.6544   15.5068    8.8147 H   0  0  0  0  0  0  0  0  0  0  0  0
   21.4756   16.1530   10.9073 H   0  0  0  0  0  0  0  0  0  0  0  0
   22.7781   16.5609   12.9933 H   0  0  0  0  0  0  0  0  0  0  0  0
   25.0016   18.4411   13.0568 H   0  0  0  0  0  0  0  0  0  0  0  0
   27.0374   17.4823   15.0060 H   0  0  0  0  0  0  0  0  0  0  0  0
   24.5443   19.0223   15.8554 H   0  0  0  0  0  0  0  0  0  0  0  0
   24.9690   17.3350   16.3000 H   0  0  0  0  0  0  0  0  0  0  0  0
   25.5634   18.9887   18.0817 H   0  0  0  0  0  0  0  0  0  0  0  0
   26.9985   18.1041   17.4230 H   0  0  0  0  0  0  0  0  0  0  0  0
   27.9991   21.0375   15.3800 H   0  0  0  0  0  0  0  0  0  0  0  0
   27.3927   15.6364   11.7327 H   0  0  0  0  0  0  0  0  0  0  0  0
   28.1494   11.3407   11.0072 H   0  0  0  0  0  0  0  0  0  0  0  0
  1  2  1  0
  2  3  1  0
  3  4  2  0
  4  5  1  0
  5  6  1  0
  6  7  2  0
  6  8  2  0
  6  9  1  0
  9 10  1  0
 10 11  2  0
 11 12  1  0
 12 13  2  0
 13 14  1  0
 14 15  2  0
 15 16  1  0
 16 17  2  0
 17 18  1  0
 18 19  2  0
 18 20  1  0
 20 21  1  0
 21 22  1  0
 22 23  1  0
 23 24  1  0
 24 25  2  0
 24 26  1  0
 26 27  1  0
 27 28  2  0
 17 29  1  0
 29 30  2  0
  5 31  1  0
 31 32  2  0
 32  3  1  0
 30 10  1  0
 29 13  1  0
 27 21  1  0
  1 33  1  0
  1 34  1  0
  1 35  1  0
  2 36  1  0
  2 37  1  0
  4 38  1  0
 11 39  1  0
 12 40  1  0
 14 41  1  0
 15 42  1  0
 16 43  1  0
 20 44  1  0
 21 45  1  1
 22 46  1  0
 22 47  1  0
 23 48  1  0
 23 49  1  0
 26 50  1  0
 30 51  1  0
 31 52  1  0
M  END
>  <meeko>  (526) 
{"is_sidechain": [true], "free_energy": -12.22, "intermolecular_energy": 0.0, "internal_energy": -12.22, "cluster_size": 4, "cluster_id": 1, "rank_in_cluster": 1}

>  <_RMSD_MCS_to_ref>  (526) 
1.3870851932499797

$$$$
ligand
     RDKit          3D

 50 53  0  0  0  0  0  0  0  0999 V2000
   24.8710    9.6160    7.7820 C   0  0  0  0  0  0  0  0  0  0  0  0
   25.4240   10.9650    7.3490 C   0  0  0  0  0  0  0  0  0  0  0  0
   26.4700   11.4690    8.2790 C   0  0  0  0  0  0  0  0  0  0  0  0
   27.1850   12.6490    8.2260 C   0  0  0  0  0  0  0  0  0  0  0  0
   27.9790   12.6100    9.3380 N   0  0  0  0  0  0  0  0  0  0  0  0
   29.2470   13.6660    9.6830 S   0  0  0  0  0  6  0  0  0  0  0  0
   30.0110   13.7390    8.4530 O   0  0  0  0  0  0  0  0  0  0  0  0
   29.8360   13.1530   10.9090 O   0  0  0  0  0  0  0  0  0  0  0  0
   28.5620   15.1270    9.9600 O   0  0  0  0  0  0  0  0  0  0  0  0
   27.2570   15.3440   10.1370 C   0  0  0  0  0  0  0  0  0  0  0  0
   26.6080   15.8390   11.2560 C   0  0  0  0  0  0  0  0  0  0  0  0
   25.2290   15.8890   10.9590 C   0  0  0  0  0  0  0  0  0  0  0  0
   24.0590   16.2850   11.6860 C   0  0  0  0  0  0  0  0  0  0  0  0
   24.0670   16.8980   13.0500 C   0  0  0  0  0  0  0  0  0  0  0  0
   23.1040   16.8080   13.8060 O   0  0  0  0  0  0  0  0  0  0  0  0
   25.1910   17.6180   13.3650 N   0  0  0  0  0  0  0  0  0  0  0  0
   25.2730   18.4120   14.5820 C   0  0  1  0  0  0  0  0  0  0  0  0
   26.1770   17.7740   15.6300 C   0  0  0  0  0  0  0  0  0  0  0  0
   26.2510   18.6740   16.8540 C   0  0  0  0  0  0  0  0  0  0  0  0
   26.7110   20.0650   16.4830 C   0  0  0  0  0  0  0  0  0  0  0  0
   27.3980   20.7530   17.2330 O   0  0  0  0  0  0  0  0  0  0  0  0
   26.2980   20.5470   15.2670 N   0  0  0  0  0  0  0  0  0  0  0  0
   25.8280   19.7940   14.2210 C   0  0  0  0  0  0  0  0  0  0  0  0
   25.8470   20.2210   13.0660 O   0  0  0  0  0  0  0  0  0  0  0  0
   22.8450   16.1040   11.1170 C   0  0  0  0  0  0  0  0  0  0  0  0
   22.7140   15.5780    9.8400 N   0  0  0  0  0  0  0  0  0  0  0  0
   23.7830   15.1950    9.0430 C   0  0  0  0  0  0  0  0  0  0  0  0
   23.6360   14.7510    7.9110 O   0  0  0  0  0  0  0  0  0  0  0  0
   25.0600   15.3750    9.6880 C   0  0  0  0  0  0  0  0  0  0  0  0
   26.2930   15.0500    9.1940 N   0  0  0  0  0  0  0  0  0  0  0  0
   27.7980   11.4220    9.9720 C   0  0  0  0  0  0  0  0  0  0  0  0
   26.8660   10.7150    9.3670 N   0  0  0  0  0  0  0  0  0  0  0  0
   24.8497    9.5640    8.8806 H   0  0  0  0  0  0  0  0  0  0  0  0
   23.8507    9.4948    7.3893 H   0  0  0  0  0  0  0  0  0  0  0  0
   25.5127    8.8135    7.3893 H   0  0  0  0  0  0  0  0  0  0  0  0
   25.8622   10.8624    6.3453 H   0  0  0  0  0  0  0  0  0  0  0  0
   24.5938   11.6867    7.3519 H   0  0  0  0  0  0  0  0  0  0  0  0
   27.1286   13.4397    7.4633 H   0  0  0  0  0  0  0  0  0  0  0  0
   27.0808   16.1384   12.2030 H   0  0  0  0  0  0  0  0  0  0  0  0
   25.9972   17.5963   12.7243 H   0  0  0  0  0  0  0  0  0  0  0  0
   24.2635   18.4820   15.0133 H   0  0  0  0  0  0  0  0  0  0  0  0
   25.7679   16.7948   15.9195 H   0  0  0  0  0  0  0  0  0  0  0  0
   27.1857   17.6418   15.2115 H   0  0  0  0  0  0  0  0  0  0  0  0
   25.2538   18.7367   17.3140 H   0  0  0  0  0  0  0  0  0  0  0  0
   26.9773   18.2436   17.5592 H   0  0  0  0  0  0  0  0  0  0  0  0
   26.3450   21.5663   15.1266 H   0  0  0  0  0  0  0  0  0  0  0  0
   21.9411   16.3802   11.6798 H   0  0  0  0  0  0  0  0  0  0  0  0
   21.7635   15.4647    9.4598 H   0  0  0  0  0  0  0  0  0  0  0  0
   26.4741   14.6483    8.2630 H   0  0  0  0  0  0  0  0  0  0  0  0
   28.3519   11.0965   10.8649 H   0  0  0  0  0  0  0  0  0  0  0  0
  1  2  1  0
  2  3  1  0
  3  4  2  0
  4  5  1  0
  5  6  1  0
  6  7  2  0
  6  8  2  0
  6  9  1  0
  9 10  1  0
 10 11  2  0
 11 12  1  0
 12 13  1  0
 13 14  1  0
 14 15  2  0
 14 16  1  0
 16 17  1  0
 17 18  1  0
 18 19  1  0
 19 20  1  0
 20 21  2  0
 20 22  1  0
 22 23  1  0
 23 24  2  0
 13 25  2  0
 25 26  1  0
 26 27  1  0
 27 28  2  0
 27 29  1  0
 29 30  1  0
  5 31  1  0
 31 32  2  0
 32  3  1  0
 30 10  1  0
 29 12  2  0
 23 17  1  0
  1 33  1  0
  1 34  1  0
  1 35  1  0
  2 36  1  0
  2 37  1  0
  4 38  1  0
 11 39  1  0
 16 40  1  0
 17 41  1  1
 18 42  1  0
 18 43  1  0
 19 44  1  0
 19 45  1  0
 22 46  1  0
 25 47  1  0
 26 48  1  0
 30 49  1  0
 31 50  1  0
M  END
>  <meeko>  (527) 
{"is_sidechain": [true], "free_energy": -12.21, "intermolecular_energy": 0.0, "internal_energy": -12.21, "cluster_size": 17, "cluster_id": 1, "rank_in_cluster": 1}

>  <_RMSD_MCS_to_ref>  (527) 
0.6808595874170956

$$$$
ligand
     RDKit          3D

 55 59  0  0  0  0  0  0  0  0999 V2000
   24.8540    9.4020    7.6050 C   0  0  0  0  0  0  0  0  0  0  0  0
   25.5230   10.7550    7.4270 C   0  0  0  0  0  0  0  0  0  0  0  0
   25.0310   11.4710    6.2180 C   0  0  0  0  0  0  0  0  0  0  0  0
   25.4220   12.6950    5.7130 C   0  0  0  0  0  0  0  0  0  0  0  0
   24.6750   12.8440    4.5790 N   0  0  0  0  0  0  0  0  0  0  0  0
   24.5440   14.2520    3.6660 S   0  0  0  0  0  6  0  0  0  0  0  0
   24.6100   13.8090    2.2850 O   0  0  0  0  0  0  0  0  0  0  0  0
   23.3690   14.9270    4.1880 O   0  0  0  0  0  0  0  0  0  0  0  0
   25.8680   15.1390    4.0090 O   0  0  0  0  0  0  0  0  0  0  0  0
   26.0770   15.7150    5.2370 C   0  0  0  0  0  0  0  0  0  0  0  0
   27.2540   16.4650    5.3410 C   0  0  0  0  0  0  0  0  0  0  0  0
   27.5860   17.1040    6.5370 C   0  0  0  0  0  0  0  0  0  0  0  0
   26.7320   16.9900    7.6360 C   0  0  0  0  0  0  0  0  0  0  0  0
   27.0590   17.6500    8.9410 C   0  0  0  0  0  0  0  0  0  0  0  0
   28.0560   18.3610    8.9950 O   0  0  0  0  0  0  0  0  0  0  0  0
   26.2590   17.4350   10.0500 N   0  0  0  0  0  0  0  0  0  0  0  0
   25.1830   16.7400    9.8690 C   0  0  0  0  0  0  0  0  0  0  0  0
   24.2200   16.3830   10.9510 C   0  0  0  0  0  0  0  0  0  0  0  0
   24.1900   16.7780   12.3610 C   0  0  0  0  0  0  0  0  0  0  0  0
   23.2450   16.4910   13.0870 O   0  0  0  0  0  0  0  0  0  0  0  0
   25.2890   17.4910   12.7750 N   0  0  0  0  0  0  0  0  0  0  0  0
   25.2610   18.2400   14.0190 C   0  0  1  0  0  0  0  0  0  0  0  0
   26.2140   17.6310   15.0400 C   0  0  0  0  0  0  0  0  0  0  0  0
   26.1630   18.4390   16.3270 C   0  0  0  0  0  0  0  0  0  0  0  0
   26.4670   19.8970   16.0720 C   0  0  0  0  0  0  0  0  0  0  0  0
   27.0480   20.5990   16.8950 O   0  0  0  0  0  0  0  0  0  0  0  0
   26.0310   20.4180   14.8810 N   0  0  0  0  0  0  0  0  0  0  0  0
   25.6700   19.7000   13.7630 C   0  0  0  0  0  0  0  0  0  0  0  0
   25.6770   20.2300   12.6530 O   0  0  0  0  0  0  0  0  0  0  0  0
   23.3170   15.6370   10.2830 C   0  0  0  0  0  0  0  0  0  0  0  0
   23.6190   15.4480    8.9340 N   0  0  0  0  0  0  0  0  0  0  0  0
   24.7310   16.1990    8.6780 N   0  0  0  0  0  0  0  0  0  0  0  0
   25.5450   16.2470    7.5430 C   0  0  0  0  0  0  0  0  0  0  0  0
   25.2250   15.6030    6.3410 C   0  0  0  0  0  0  0  0  0  0  0  0
   23.8210   11.7940    4.4690 C   0  0  0  0  0  0  0  0  0  0  0  0
   24.0290   10.9270    5.4390 N   0  0  0  0  0  0  0  0  0  0  0  0
   24.7464    9.1845    8.6779 H   0  0  0  0  0  0  0  0  0  0  0  0
   23.8606    9.4192    7.1330 H   0  0  0  0  0  0  0  0  0  0  0  0
   25.4708    8.6230    7.1330 H   0  0  0  0  0  0  0  0  0  0  0  0
   25.3151   11.3723    8.3134 H   0  0  0  0  0  0  0  0  0  0  0  0
   26.6025   10.5841    7.3023 H   0  0  0  0  0  0  0  0  0  0  0  0
   26.1652   13.3912    6.1288 H   0  0  0  0  0  0  0  0  0  0  0  0
   27.9235   16.5518    4.4726 H   0  0  0  0  0  0  0  0  0  0  0  0
   28.5124   17.6923    6.6130 H   0  0  0  0  0  0  0  0  0  0  0  0
   26.1416   17.4944   12.1971 H   0  0  0  0  0  0  0  0  0  0  0  0
   24.2359   18.2016   14.4162 H   0  0  0  0  0  0  0  0  0  0  0  0
   25.9149   16.5928   15.2469 H   0  0  0  0  0  0  0  0  0  0  0  0
   27.2382   17.6449   14.6390 H   0  0  0  0  0  0  0  0  0  0  0  0
   25.1572   18.3538   16.7640 H   0  0  0  0  0  0  0  0  0  0  0  0
   26.9219   18.0415   17.0169 H   0  0  0  0  0  0  0  0  0  0  0  0
   25.9675   21.4440   14.8165 H   0  0  0  0  0  0  0  0  0  0  0  0
   22.4204   15.2143   10.7600 H   0  0  0  0  0  0  0  0  0  0  0  0
   23.1050   14.8587    8.2636 H   0  0  0  0  0  0  0  0  0  0  0  0
   24.3027   15.0084    6.2650 H   0  0  0  0  0  0  0  0  0  0  0  0
   23.0620   11.6829    3.6806 H   0  0  0  0  0  0  0  0  0  0  0  0
  1  2  1  0
  2  3  1  0
  3  4  2  0
  4  5  1  0
  5  6  1  0
  6  7  2  0
  6  8  2  0
  6  9  1  0
  9 10  1  0
 10 11  2  0
 11 12  1  0
 12 13  2  0
 13 14  1  0
 14 15  2  0
 14 16  1  0
 16 17  2  0
 17 18  1  0
 18 19  1  0
 19 20  2  0
 19 21  1  0
 21 22  1  0
 22 23  1  0
 23 24  1  0
 24 25  1  0
 25 26  2  0
 25 27  1  0
 27 28  1  0
 28 29  2  0
 18 30  2  0
 30 31  1  0
 31 32  1  0
 32 33  1  0
 33 34  2  0
  5 35  1  0
 35 36  2  0
 36  3  1  0
 34 10  1  0
 33 13  1  0
 32 17  1  0
 28 22  1  0
  1 37  1  0
  1 38  1  0
  1 39  1  0
  2 40  1  0
  2 41  1  0
  4 42  1  0
 11 43  1  0
 12 44  1  0
 21 45  1  0
 22 46  1  1
 23 47  1  0
 23 48  1  0
 24 49  1  0
 24 50  1  0
 27 51  1  0
 30 52  1  0
 31 53  1  0
 34 54  1  0
 35 55  1  0
M  END
>  <meeko>  (528) 
{"is_sidechain": [true], "free_energy": -12.2, "intermolecular_energy": 0.0, "internal_energy": -12.2, "cluster_size": 20, "cluster_id": 1, "rank_in_cluster": 1}

>  <_RMSD_MCS_to_ref>  (528) 
0.8326892844539576

$$$$
ligand
     RDKit          3D

 60 65  0  0  0  0  0  0  0  0999 V2000
   24.8540    9.4020    7.6050 C   0  0  0  0  0  0  0  0  0  0  0  0
   25.5230   10.7550    7.4270 C   0  0  0  0  0  0  0  0  0  0  0  0
   24.9870   11.4960    6.2520 C   0  0  0  0  0  0  0  0  0  0  0  0
   25.1320   12.8310    5.9300 C   0  0  0  0  0  0  0  0  0  0  0  0
   24.4360   12.9720    4.7650 N   0  0  0  0  0  0  0  0  0  0  0  0
   24.4400   14.3220    3.7630 S   0  0  0  0  0  6  0  0  0  0  0  0
   23.6790   15.3490    4.4500 O   0  0  0  0  0  0  0  0  0  0  0  0
   24.0520   13.8350    2.4540 O   0  0  0  0  0  0  0  0  0  0  0  0
   26.1430   14.8050    3.7120 C   0  0  0  0  0  0  0  0  0  0  0  0
   26.8110   14.7080    2.4700 C   0  0  0  0  0  0  0  0  0  0  0  0
   28.1660   15.0160    2.3540 C   0  0  0  0  0  0  0  0  0  0  0  0
   28.9020   15.4230    3.4660 C   0  0  0  0  0  0  0  0  0  0  0  0
   28.2080   15.5250    4.6710 C   0  0  0  0  0  0  0  0  0  0  0  0
   28.7560   15.8960    5.8510 O   0  0  0  0  0  0  0  0  0  0  0  0
   27.7900   15.8950    6.8270 N   0  0  0  0  0  0  0  0  0  0  0  0
   26.6400   15.5430    6.2360 C   0  0  0  0  0  0  0  0  0  0  0  0
   25.4180   15.4800    6.8290 N   0  0  0  0  0  0  0  0  0  0  0  0
   25.0030   15.7680    8.1520 C   0  0  0  0  0  0  0  0  0  0  0  0
   23.8300   15.1320    8.6350 C   0  0  0  0  0  0  0  0  0  0  0  0
   23.3560   15.3450    9.9330 C   0  0  0  0  0  0  0  0  0  0  0  0
   24.0750   16.2070   10.7330 C   0  0  0  0  0  0  0  0  0  0  0  0
   25.2310   16.8420   10.2930 C   0  0  0  0  0  0  0  0  0  0  0  0
   25.7070   16.6300    9.0090 C   0  0  0  0  0  0  0  0  0  0  0  0
   25.7970   17.6820   11.3880 C   0  0  0  0  0  0  0  0  0  0  0  0
   24.7990   17.5500   12.4420 N   0  0  0  0  0  0  0  0  0  0  0  0
   25.0540   18.0420   13.7910 C   0  0  1  0  0  0  0  0  0  0  0  0
   26.1820   17.3050   14.5110 C   0  0  0  0  0  0  0  0  0  0  0  0
   26.3210   17.8520   15.9220 C   0  0  0  0  0  0  0  0  0  0  0  0
   26.5600   19.3440   15.9110 C   0  0  0  0  0  0  0  0  0  0  0  0
   27.1030   19.9260   16.8460 O   0  0  0  0  0  0  0  0  0  0  0  0
   26.0650   20.0390   14.8380 N   0  0  0  0  0  0  0  0  0  0  0  0
   25.3120   19.5570   13.7920 C   0  0  0  0  0  0  0  0  0  0  0  0
   24.8030   20.3340   12.9830 O   0  0  0  0  0  0  0  0  0  0  0  0
   23.8290   16.6130   12.1200 C   0  0  0  0  0  0  0  0  0  0  0  0
   22.9420   16.1700   12.8230 O   0  0  0  0  0  0  0  0  0  0  0  0
   26.8580   15.2560    4.8450 C   0  0  0  0  0  0  0  0  0  0  0  0
   23.9320   11.7660    4.3980 C   0  0  0  0  0  0  0  0  0  0  0  0
   24.2430   10.8460    5.2860 N   0  0  0  0  0  0  0  0  0  0  0  0
   24.7464    9.1845    8.6779 H   0  0  0  0  0  0  0  0  0  0  0  0
   23.8606    9.4192    7.1330 H   0  0  0  0  0  0  0  0  0  0  0  0
   25.4708    8.6230    7.1330 H   0  0  0  0  0  0  0  0  0  0  0  0
   25.3535   11.3561    8.3325 H   0  0  0  0  0  0  0  0  0  0  0  0
   26.5959   10.5820    7.2570 H   0  0  0  0  0  0  0  0  0  0  0  0
   25.6828   13.6041    6.4858 H   0  0  0  0  0  0  0  0  0  0  0  0
   26.2522   14.3839    1.5796 H   0  0  0  0  0  0  0  0  0  0  0  0
   28.6598   14.9370    1.3742 H   0  0  0  0  0  0  0  0  0  0  0  0
   29.9756   15.6520    3.3962 H   0  0  0  0  0  0  0  0  0  0  0  0
   24.6600   15.1675    6.2056 H   0  0  0  0  0  0  0  0  0  0  0  0
   23.2780   14.4521    7.9693 H   0  0  0  0  0  0  0  0  0  0  0  0
   22.4474   14.8456   10.3004 H   0  0  0  0  0  0  0  0  0  0  0  0
   26.6244   17.1303    8.6653 H   0  0  0  0  0  0  0  0  0  0  0  0
   26.7743   17.2990   11.7169 H   0  0  0  0  0  0  0  0  0  0  0  0
   25.9799   18.7245   11.0882 H   0  0  0  0  0  0  0  0  0  0  0  0
   24.1358   17.8336   14.3598 H   0  0  0  0  0  0  0  0  0  0  0  0
   25.9494   16.2308   14.5549 H   0  0  0  0  0  0  0  0  0  0  0  0
   27.1253   17.4525   13.9647 H   0  0  0  0  0  0  0  0  0  0  0  0
   25.3972   17.6411   16.4807 H   0  0  0  0  0  0  0  0  0  0  0  0
   27.1842   17.3655   16.3997 H   0  0  0  0  0  0  0  0  0  0  0  0
   26.2835   21.0452   14.8115 H   0  0  0  0  0  0  0  0  0  0  0  0
   23.3454   11.5834    3.4855 H   0  0  0  0  0  0  0  0  0  0  0  0
  1  2  1  0
  2  3  1  0
  3  4  2  0
  4  5  1  0
  5  6  1  0
  6  7  2  0
  6  8  2  0
  6  9  1  0
  9 10  2  0
 10 11  1  0
 11 12  2  0
 12 13  1  0
 13 14  1  0
 14 15  1  0
 15 16  2  0
 16 17  1  0
 17 18  1  0
 18 19  2  0
 19 20  1  0
 20 21  2  0
 21 22  1  0
 22 23  2  0
 22 24  1  0
 24 25  1  0
 25 26  1  0
 26 27  1  0
 27 28  1  0
 28 29  1  0
 29 30  2  0
 29 31  1  0
 31 32  1  0
 32 33  2  0
 25 34  1  0
 34 35  2  0
 16 36  1  0
  5 37  1  0
 37 38  2  0
 38  3  1  0
 36  9  1  0
 36 13  2  0
 23 18  1  0
 32 26  1  0
 34 21  1  0
  1 39  1  0
  1 40  1  0
  1 41  1  0
  2 42  1  0
  2 43  1  0
  4 44  1  0
 10 45  1  0
 11 46  1  0
 12 47  1  0
 17 48  1  0
 19 49  1  0
 20 50  1  0
 23 51  1  0
 24 52  1  0
 24 53  1  0
 26 54  1  1
 27 55  1  0
 27 56  1  0
 28 57  1  0
 28 58  1  0
 31 59  1  0
 37 60  1  0
M  END
>  <meeko>  (529) 
{"is_sidechain": [true], "free_energy": -12.2, "intermolecular_energy": 0.0, "internal_energy": -12.2, "cluster_size": 13, "cluster_id": 1, "rank_in_cluster": 1}

>  <_RMSD_MCS_to_ref>  (529) 
0.9320658655791323

$$$$
ligand
     RDKit          3D

 65 69  0  0  0  0  0  0  0  0999 V2000
   24.8710    9.6160    7.7820 C   0  0  0  0  0  0  0  0  0  0  0  0
   25.4240   10.9650    7.3490 C   0  0  0  0  0  0  0  0  0  0  0  0
   26.6890   11.3050    8.0540 C   0  0  0  0  0  0  0  0  0  0  0  0
   27.9500   11.4970    7.5240 C   0  0  0  0  0  0  0  0  0  0  0  0
   28.7280   11.7910    8.6030 N   0  0  0  0  0  0  0  0  0  0  0  0
   30.3380   12.2800    8.5660 S   0  0  0  0  0  6  0  0  0  0  0  0
   30.5780   12.9460    9.8330 O   0  0  0  0  0  0  0  0  0  0  0  0
   31.0890   11.0970    8.1920 O   0  0  0  0  0  0  0  0  0  0  0  0
   30.4050   13.5220    7.2780 C   0  0  0  0  0  0  0  0  0  0  0  0
   31.6280   13.5860    6.5850 C   0  0  0  0  0  0  0  0  0  0  0  0
   31.8100   14.4900    5.5460 C   0  0  0  0  0  0  0  0  0  0  0  0
   30.7670   15.3290    5.1800 C   0  0  0  0  0  0  0  0  0  0  0  0
   29.5300   15.2820    5.8470 C   0  0  0  0  0  0  0  0  0  0  0  0
   29.3220   14.3600    6.9070 C   0  0  0  0  0  0  0  0  0  0  0  0
   27.9680   14.3450    7.6140 C   0  0  1  0  0  0  0  0  0  0  0  0
   28.0380   14.9960    9.0080 C   0  0  0  0  0  0  0  0  0  0  0  0
   29.0550   14.9320    9.6970 O   0  0  0  0  0  0  0  0  0  0  0  0
   26.8620   15.6330    9.3670 N   0  0  0  0  0  0  0  0  0  0  0  0
   26.6210   16.3830   10.5370 C   0  0  0  0  0  0  0  0  0  0  0  0
   25.9130   15.7550   11.5660 C   0  0  0  0  0  0  0  0  0  0  0  0
   25.6350   16.4290   12.7590 C   0  0  0  0  0  0  0  0  0  0  0  0
   26.0520   17.7540   12.9440 C   0  0  0  0  0  0  0  0  0  0  0  0
   25.7610   18.4670   14.2540 C   0  0  1  0  0  0  0  0  0  0  0  0
   26.6320   17.8960   15.3790 C   0  0  0  0  0  0  0  0  0  0  0  0
   26.2980   18.5890   16.6900 C   0  0  0  0  0  0  0  0  0  0  0  0
   26.4770   20.0810   16.5740 C   0  0  0  0  0  0  0  0  0  0  0  0
   26.6910   20.7950   17.5500 O   0  0  0  0  0  0  0  0  0  0  0  0
   26.3140   20.6210   15.3230 N   0  0  0  0  0  0  0  0  0  0  0  0
   25.9270   19.9840   14.1670 C   0  0  0  0  0  0  0  0  0  0  0  0
   25.6730   20.6460   13.1640 O   0  0  0  0  0  0  0  0  0  0  0  0
   26.7520   18.3830   11.9050 C   0  0  0  0  0  0  0  0  0  0  0  0
   27.0310   17.7030   10.7120 C   0  0  0  0  0  0  0  0  0  0  0  0
   26.8350   15.0210    6.8210 C   0  0  0  0  0  0  0  0  0  0  0  0
   27.2730   16.3740    6.2840 C   0  0  0  0  0  0  0  0  0  0  0  0
   28.4450   16.2000    5.3320 C   0  0  0  0  0  0  0  0  0  0  0  0
   27.9570   11.7830    9.7210 C   0  0  0  0  0  0  0  0  0  0  0  0
   26.7090   11.4870    9.4240 N   0  0  0  0  0  0  0  0  0  0  0  0
   24.8497    9.5640    8.8806 H   0  0  0  0  0  0  0  0  0  0  0  0
   23.8507    9.4948    7.3893 H   0  0  0  0  0  0  0  0  0  0  0  0
   25.5127    8.8135    7.3893 H   0  0  0  0  0  0  0  0  0  0  0  0
   25.6178   10.9377    6.2665 H   0  0  0  0  0  0  0  0  0  0  0  0
   24.6786   11.7332    7.6025 H   0  0  0  0  0  0  0  0  0  0  0  0
   28.2565   11.4281    6.4698 H   0  0  0  0  0  0  0  0  0  0  0  0
   32.4497   12.9122    6.8693 H   0  0  0  0  0  0  0  0  0  0  0  0
   32.7734   14.5404    5.0175 H   0  0  0  0  0  0  0  0  0  0  0  0
   30.9102   16.0422    4.3549 H   0  0  0  0  0  0  0  0  0  0  0  0
   27.7277   13.2753    7.7034 H   0  0  0  0  0  0  0  0  0  0  0  0
   26.0761   15.5499    8.7064 H   0  0  0  0  0  0  0  0  0  0  0  0
   25.5704   14.7179   11.4354 H   0  0  0  0  0  0  0  0  0  0  0  0
   25.0838   15.9144   13.5599 H   0  0  0  0  0  0  0  0  0  0  0  0
   24.7004   18.2828   14.4802 H   0  0  0  0  0  0  0  0  0  0  0  0
   26.4411   16.8171   15.4771 H   0  0  0  0  0  0  0  0  0  0  0  0
   27.6922   18.0641   15.1388 H   0  0  0  0  0  0  0  0  0  0  0  0
   25.2528   18.3718   16.9555 H   0  0  0  0  0  0  0  0  0  0  0  0
   26.9795   18.2140   17.4678 H   0  0  0  0  0  0  0  0  0  0  0  0
   26.5054   21.6296   15.2392 H   0  0  0  0  0  0  0  0  0  0  0  0
   27.0865   19.4237   12.0278 H   0  0  0  0  0  0  0  0  0  0  0  0
   27.5782   18.2155    9.9071 H   0  0  0  0  0  0  0  0  0  0  0  0
   26.5519   14.3744    5.9773 H   0  0  0  0  0  0  0  0  0  0  0  0
   25.9798   15.1737    7.4958 H   0  0  0  0  0  0  0  0  0  0  0  0
   26.4343   16.8421    5.7478 H   0  0  0  0  0  0  0  0  0  0  0  0
   27.5817   17.0135    7.1241 H   0  0  0  0  0  0  0  0  0  0  0  0
   28.0633   15.7868    4.3867 H   0  0  0  0  0  0  0  0  0  0  0  0
   28.9026   17.1927    5.2089 H   0  0  0  0  0  0  0  0  0  0  0  0
   28.3249   11.9948   10.7358 H   0  0  0  0  0  0  0  0  0  0  0  0
  1  2  1  0
  2  3  1  0
  3  4  2  0
  4  5  1  0
  5  6  1  0
  6  7  2  0
  6  8  2  0
  6  9  1  0
  9 10  2  0
 10 11  1  0
 11 12  2  0
 12 13  1  0
 13 14  2  0
 14 15  1  0
 15 16  1  0
 16 17  2  0
 16 18  1  0
 18 19  1  0
 19 20  2  0
 20 21  1  0
 21 22  2  0
 22 23  1  0
 23 24  1  0
 24 25  1  0
 25 26  1  0
 26 27  2  0
 26 28  1  0
 28 29  1  0
 29 30  2  0
 22 31  1  0
 31 32  2  0
 15 33  1  0
 33 34  1  0
 34 35  1  0
  5 36  1  0
 36 37  2  0
 37  3  1  0
 14  9  1  0
 32 19  1  0
 35 13  1  0
 29 23  1  0
  1 38  1  0
  1 39  1  0
  1 40  1  0
  2 41  1  0
  2 42  1  0
  4 43  1  0
 10 44  1  0
 11 45  1  0
 12 46  1  0
 15 47  1  1
 18 48  1  0
 20 49  1  0
 21 50  1  0
 23 51  1  1
 24 52  1  0
 24 53  1  0
 25 54  1  0
 25 55  1  0
 28 56  1  0
 31 57  1  0
 32 58  1  0
 33 59  1  0
 33 60  1  0
 34 61  1  0
 34 62  1  0
 35 63  1  0
 35 64  1  0
 36 65  1  0
M  END
>  <meeko>  (530) 
{"is_sidechain": [true], "free_energy": -12.2, "intermolecular_energy": 0.0, "internal_energy": -12.2, "cluster_size": 9, "cluster_id": 1, "rank_in_cluster": 1}

>  <_RMSD_MCS_to_ref>  (530) 
0.8648942854476495

$$$$
ligand
     RDKit          3D

 59 64  0  0  0  0  0  0  0  0999 V2000
   24.8710    9.6160    7.7820 C   0  0  0  0  0  0  0  0  0  0  0  0
   25.4240   10.9650    7.3490 C   0  0  0  0  0  0  0  0  0  0  0  0
   26.8230   11.1760    7.8120 C   0  0  0  0  0  0  0  0  0  0  0  0
   27.2980   12.0330    8.7850 C   0  0  0  0  0  0  0  0  0  0  0  0
   28.6430   11.7930    8.8200 N   0  0  0  0  0  0  0  0  0  0  0  0
   29.7860   12.7710    9.5860 S   0  0  0  0  0  6  0  0  0  0  0  0
   29.4330   12.7200   10.9920 O   0  0  0  0  0  0  0  0  0  0  0  0
   31.0670   12.2940    9.1010 O   0  0  0  0  0  0  0  0  0  0  0  0
   29.4920   14.2830    9.0370 O   0  0  0  0  0  0  0  0  0  0  0  0
   28.9320   14.4250    7.7890 C   0  0  0  0  0  0  0  0  0  0  0  0
   27.6770   15.0480    7.6530 C   0  0  0  0  0  0  0  0  0  0  0  0
   26.8920   15.4980    8.8160 C   0  0  0  0  0  0  0  0  0  0  0  0
   25.6360   14.9010    9.1020 C   0  0  0  0  0  0  0  0  0  0  0  0
   24.8910   15.2660   10.2270 C   0  0  0  0  0  0  0  0  0  0  0  0
   25.4310   16.2230   11.0610 C   0  0  0  0  0  0  0  0  0  0  0  0
   26.6570   16.8320   10.8090 C   0  0  0  0  0  0  0  0  0  0  0  0
   27.3890   16.4920    9.6830 C   0  0  0  0  0  0  0  0  0  0  0  0
   26.9690   17.8080   11.8920 C   0  0  0  0  0  0  0  0  0  0  0  0
   25.8680   17.6150   12.8240 N   0  0  0  0  0  0  0  0  0  0  0  0
   25.6840   18.4920   13.9730 C   0  0  2  0  0  0  0  0  0  0  0  0
   26.2330   19.9030   13.7650 C   0  0  0  0  0  0  0  0  0  0  0  0
   25.9390   20.7440   14.9970 C   0  0  0  0  0  0  0  0  0  0  0  0
   26.5110   20.1080   16.2430 C   0  0  0  0  0  0  0  0  0  0  0  0
   26.7620   20.7610   17.2530 O   0  0  0  0  0  0  0  0  0  0  0  0
   26.6590   18.7450   16.2280 N   0  0  0  0  0  0  0  0  0  0  0  0
   26.2710   17.8630   15.2450 C   0  0  0  0  0  0  0  0  0  0  0  0
   26.3040   16.6500   15.4500 O   0  0  0  0  0  0  0  0  0  0  0  0
   24.8990   16.7660   12.3140 C   0  0  0  0  0  0  0  0  0  0  0  0
   23.8040   16.5020   12.7700 O   0  0  0  0  0  0  0  0  0  0  0  0
   27.1900   15.1930    6.3480 C   0  0  0  0  0  0  0  0  0  0  0  0
   27.8050   14.8050    5.2000 N   0  0  0  0  0  0  0  0  0  0  0  0
   28.9990   14.2270    5.4200 C   0  0  0  0  0  0  0  0  0  0  0  0
   29.8520   13.7390    4.4730 N   0  0  0  0  0  0  0  0  0  0  0  0
   30.9920   13.2240    4.9830 N   0  0  0  0  0  0  0  0  0  0  0  0
   30.8390   13.3850    6.3020 C   0  0  0  0  0  0  0  0  0  0  0  0
   29.6170   14.0070    6.6390 C   0  0  0  0  0  0  0  0  0  0  0  0
   28.9540   10.8870    7.8580 C   0  0  0  0  0  0  0  0  0  0  0  0
   27.8670   10.4810    7.2340 N   0  0  0  0  0  0  0  0  0  0  0  0
   24.8497    9.5640    8.8806 H   0  0  0  0  0  0  0  0  0  0  0  0
   23.8507    9.4948    7.3893 H   0  0  0  0  0  0  0  0  0  0  0  0
   25.5127    8.8135    7.3893 H   0  0  0  0  0  0  0  0  0  0  0  0
   25.4026   11.0202    6.2506 H   0  0  0  0  0  0  0  0  0  0  0  0
   24.7974   11.7472    7.8024 H   0  0  0  0  0  0  0  0  0  0  0  0
   26.7240   12.7470    9.3939 H   0  0  0  0  0  0  0  0  0  0  0  0
   25.2396   14.1327    8.4219 H   0  0  0  0  0  0  0  0  0  0  0  0
   23.9133   14.8085   10.4388 H   0  0  0  0  0  0  0  0  0  0  0  0
   28.3454   16.9912    9.4684 H   0  0  0  0  0  0  0  0  0  0  0  0
   27.9348   17.5790   12.3662 H   0  0  0  0  0  0  0  0  0  0  0  0
   27.0604   18.8437   11.5330 H   0  0  0  0  0  0  0  0  0  0  0  0
   24.5963   18.6026   14.0937 H   0  0  0  0  0  0  0  0  0  0  0  0
   27.3201   19.8542   13.6044 H   0  0  0  0  0  0  0  0  0  0  0  0
   25.7543   20.3584   12.8855 H   0  0  0  0  0  0  0  0  0  0  0  0
   26.3854   21.7407   14.8658 H   0  0  0  0  0  0  0  0  0  0  0  0
   24.8479   20.8197   15.1144 H   0  0  0  0  0  0  0  0  0  0  0  0
   27.1162   18.3306   17.0527 H   0  0  0  0  0  0  0  0  0  0  0  0
   26.2054   15.6716    6.2409 H   0  0  0  0  0  0  0  0  0  0  0  0
   29.6459   13.7613    3.4641 H   0  0  0  0  0  0  0  0  0  0  0  0
   31.5854   13.0669    7.0448 H   0  0  0  0  0  0  0  0  0  0  0  0
   29.9728   10.5398    7.6309 H   0  0  0  0  0  0  0  0  0  0  0  0
  1  2  1  0
  2  3  1  0
  3  4  2  0
  4  5  1  0
  5  6  1  0
  6  7  2  0
  6  8  2  0
  6  9  1  0
  9 10  1  0
 10 11  1  0
 11 12  1  0
 12 13  2  0
 13 14  1  0
 14 15  2  0
 15 16  1  0
 16 17  2  0
 16 18  1  0
 18 19  1  0
 19 20  1  0
 20 21  1  0
 21 22  1  0
 22 23  1  0
 23 24  2  0
 23 25  1  0
 25 26  1  0
 26 27  2  0
 19 28  1  0
 28 29  2  0
 11 30  2  0
 30 31  1  0
 31 32  2  0
 32 33  1  0
 33 34  1  0
 34 35  2  0
 35 36  1  0
  5 37  1  0
 37 38  2  0
 38  3  1  0
 36 10  2  0
 17 12  1  0
 26 20  1  0
 36 32  1  0
 28 15  1  0
  1 39  1  0
  1 40  1  0
  1 41  1  0
  2 42  1  0
  2 43  1  0
  4 44  1  0
 13 45  1  0
 14 46  1  0
 17 47  1  0
 18 48  1  0
 18 49  1  0
 20 50  1  1
 21 51  1  0
 21 52  1  0
 22 53  1  0
 22 54  1  0
 25 55  1  0
 30 56  1  0
 33 57  1  0
 35 58  1  0
 37 59  1  0
M  END
>  <meeko>  (531) 
{"is_sidechain": [true], "free_energy": -12.2, "intermolecular_energy": 0.0, "internal_energy": -12.2, "cluster_size": 14, "cluster_id": 1, "rank_in_cluster": 1}

>  <_RMSD_MCS_to_ref>  (531) 
1.990461900903247

$$$$
ligand
     RDKit          3D

 61 66  0  0  0  0  0  0  0  0999 V2000
   24.8710    9.6160    7.7820 C   0  0  0  0  0  0  0  0  0  0  0  0
   25.4240   10.9650    7.3490 C   0  0  0  0  0  0  0  0  0  0  0  0
   26.9120   10.9920    7.3640 C   0  0  0  0  0  0  0  0  0  0  0  0
   27.7680   11.9340    6.8250 C   0  0  0  0  0  0  0  0  0  0  0  0
   29.0140   11.4600    7.1220 N   0  0  0  0  0  0  0  0  0  0  0  0
   30.4650   12.2940    6.8950 S   0  0  0  0  0  6  0  0  0  0  0  0
   31.4470   11.5670    7.6790 O   0  0  0  0  0  0  0  0  0  0  0  0
   30.5940   12.3990    5.4520 O   0  0  0  0  0  0  0  0  0  0  0  0
   30.3010   13.8070    7.4970 O   0  0  0  0  0  0  0  0  0  0  0  0
   29.1010   14.1610    8.0660 C   0  0  0  0  0  0  0  0  0  0  0  0
   28.8330   13.8320    9.3970 C   0  0  0  0  0  0  0  0  0  0  0  0
   27.6050   14.1680    9.9660 C   0  0  0  0  0  0  0  0  0  0  0  0
   26.6160   14.8520    9.2350 C   0  0  0  0  0  0  0  0  0  0  0  0
   25.3290   15.2070    9.8220 C   0  0  0  0  0  0  0  0  0  0  0  0
   24.1210   14.8360    9.2000 C   0  0  0  0  0  0  0  0  0  0  0  0
   22.8700   15.1960    9.7400 C   0  0  0  0  0  0  0  0  0  0  0  0
   22.7940   15.9390   10.9160 C   0  0  0  0  0  0  0  0  0  0  0  0
   23.9860   16.2880   11.5210 C   0  0  0  0  0  0  0  0  0  0  0  0
   25.2320   15.9360   11.0020 C   0  0  0  0  0  0  0  0  0  0  0  0
   26.3150   16.4680   11.8850 C   0  0  0  0  0  0  0  0  0  0  0  0
   25.5690   17.1070   12.9620 N   0  0  0  0  0  0  0  0  0  0  0  0
   26.1710   18.0470   13.9000 C   0  0  1  0  0  0  0  0  0  0  0  0
   25.3850   19.3500   14.0080 C   0  0  0  0  0  0  0  0  0  0  0  0
   26.1170   20.3030   14.9400 C   0  0  0  0  0  0  0  0  0  0  0  0
   26.3570   19.6710   16.2920 C   0  0  0  0  0  0  0  0  0  0  0  0
   26.3160   20.3160   17.3350 O   0  0  0  0  0  0  0  0  0  0  0  0
   26.6440   18.3310   16.3000 N   0  0  0  0  0  0  0  0  0  0  0  0
   26.3210   17.4360   15.3050 C   0  0  0  0  0  0  0  0  0  0  0  0
   26.1600   16.2460   15.5680 O   0  0  0  0  0  0  0  0  0  0  0  0
   24.2010   17.0780   12.7380 C   0  0  0  0  0  0  0  0  0  0  0  0
   23.3240   17.6060   13.3930 O   0  0  0  0  0  0  0  0  0  0  0  0
   26.9280   15.1930    7.9050 C   0  0  0  0  0  0  0  0  0  0  0  0
   26.1770   15.8440    6.9460 N   0  0  0  0  0  0  0  0  0  0  0  0
   26.8950   15.9810    5.7890 C   0  0  0  0  0  0  0  0  0  0  0  0
   28.1220   15.3910    5.9830 C   0  0  0  0  0  0  0  0  0  0  0  0
   28.1530   14.8790    7.3110 C   0  0  0  0  0  0  0  0  0  0  0  0
   28.8960   10.3160    7.8430 C   0  0  0  0  0  0  0  0  0  0  0  0
   27.6280    9.9910    7.9910 N   0  0  0  0  0  0  0  0  0  0  0  0
   24.8497    9.5640    8.8806 H   0  0  0  0  0  0  0  0  0  0  0  0
   23.8507    9.4948    7.3893 H   0  0  0  0  0  0  0  0  0  0  0  0
   25.5127    8.8135    7.3893 H   0  0  0  0  0  0  0  0  0  0  0  0
   25.0758   11.1797    6.3279 H   0  0  0  0  0  0  0  0  0  0  0  0
   25.0647   11.7224    8.0612 H   0  0  0  0  0  0  0  0  0  0  0  0
   27.5059   12.8539    6.2818 H   0  0  0  0  0  0  0  0  0  0  0  0
   29.5914   13.3074    9.9968 H   0  0  0  0  0  0  0  0  0  0  0  0
   27.4045   13.8917   11.0117 H   0  0  0  0  0  0  0  0  0  0  0  0
   24.1548   14.2506    8.2694 H   0  0  0  0  0  0  0  0  0  0  0  0
   21.9461   14.8878    9.2288 H   0  0  0  0  0  0  0  0  0  0  0  0
   21.8254   16.2354   11.3449 H   0  0  0  0  0  0  0  0  0  0  0  0
   26.9479   15.6547   12.2697 H   0  0  0  0  0  0  0  0  0  0  0  0
   27.0030   17.1519   11.3664 H   0  0  0  0  0  0  0  0  0  0  0  0
   27.1675   18.2719   13.4920 H   0  0  0  0  0  0  0  0  0  0  0  0
   25.2939   19.8078   13.0119 H   0  0  0  0  0  0  0  0  0  0  0  0
   24.3812   19.1427   14.4073 H   0  0  0  0  0  0  0  0  0  0  0  0
   27.0855   20.5695   14.4918 H   0  0  0  0  0  0  0  0  0  0  0  0
   25.4942   21.1988   15.0805 H   0  0  0  0  0  0  0  0  0  0  0  0
   27.1444   17.9617   17.1210 H   0  0  0  0  0  0  0  0  0  0  0  0
   25.2126   16.1791    7.0823 H   0  0  0  0  0  0  0  0  0  0  0  0
   26.5518   16.4750    4.8680 H   0  0  0  0  0  0  0  0  0  0  0  0
   28.9343   15.3263    5.2441 H   0  0  0  0  0  0  0  0  0  0  0  0
   29.7416    9.7404    8.2475 H   0  0  0  0  0  0  0  0  0  0  0  0
  1  2  1  0
  2  3  1  0
  3  4  2  0
  4  5  1  0
  5  6  1  0
  6  7  2  0
  6  8  2  0
  6  9  1  0
  9 10  1  0
 10 11  2  0
 11 12  1  0
 12 13  2  0
 13 14  1  0
 14 15  2  0
 15 16  1  0
 16 17  2  0
 17 18  1  0
 18 19  2  0
 19 20  1  0
 20 21  1  0
 21 22  1  0
 22 23  1  0
 23 24  1  0
 24 25  1  0
 25 26  2  0
 25 27  1  0
 27 28  1  0
 28 29  2  0
 21 30  1  0
 30 31  2  0
 13 32  1  0
 32 33  1  0
 33 34  1  0
 34 35  2  0
 35 36  1  0
  5 37  1  0
 37 38  2  0
 38  3  1  0
 36 10  1  0
 19 14  1  0
 28 22  1  0
 36 32  2  0
 30 18  1  0
  1 39  1  0
  1 40  1  0
  1 41  1  0
  2 42  1  0
  2 43  1  0
  4 44  1  0
 11 45  1  0
 12 46  1  0
 15 47  1  0
 16 48  1  0
 17 49  1  0
 20 50  1  0
 20 51  1  0
 22 52  1  6
 23 53  1  0
 23 54  1  0
 24 55  1  0
 24 56  1  0
 27 57  1  0
 33 58  1  0
 34 59  1  0
 35 60  1  0
 37 61  1  0
M  END
>  <meeko>  (532) 
{"is_sidechain": [true], "free_energy": -12.19, "intermolecular_energy": 0.0, "internal_energy": -12.19, "cluster_size": 9, "cluster_id": 1, "rank_in_cluster": 1}

>  <_RMSD_MCS_to_ref>  (532) 
1.9005860938142218

$$$$
ligand
     RDKit          3D

 47 50  0  0  0  0  0  0  0  0999 V2000
   24.8710    9.6160    7.7820 C   0  0  0  0  0  0  0  0  0  0  0  0
   25.4240   10.9650    7.3490 C   0  0  0  0  0  0  0  0  0  0  0  0
   26.7460   11.2560    7.9670 C   0  0  0  0  0  0  0  0  0  0  0  0
   27.0290   11.9400    9.1330 C   0  0  0  0  0  0  0  0  0  0  0  0
   28.3900   11.8790    9.2340 N   0  0  0  0  0  0  0  0  0  0  0  0
   29.3350   12.7280   10.3440 S   0  0  0  0  0  6  0  0  0  0  0  0
   28.9590   12.1760   11.6320 O   0  0  0  0  0  0  0  0  0  0  0  0
   30.6890   12.6070    9.8290 O   0  0  0  0  0  0  0  0  0  0  0  0
   28.8390   14.2760   10.2460 O   0  0  0  0  0  0  0  0  0  0  0  0
   27.8210   14.6470    9.4800 C   0  0  0  0  0  0  0  0  0  0  0  0
   27.7950   14.4540    8.1780 N   0  0  0  0  0  0  0  0  0  0  0  0
   26.6020   14.9540    7.6980 N   0  0  0  0  0  0  0  0  0  0  0  0
   25.9430   15.4680    8.7140 C   0  0  0  0  0  0  0  0  0  0  0  0
   24.6960   16.1240    8.8160 C   0  0  0  0  0  0  0  0  0  0  0  0
   24.2970   16.5860   10.0090 C   0  0  0  0  0  0  0  0  0  0  0  0
   25.2130   16.3710   11.1650 C   0  0  0  0  0  0  0  0  0  0  0  0
   24.7740   16.9340   12.5200 C   0  0  0  0  0  0  0  0  0  0  0  0
   23.5920   17.0370   12.8030 O   0  0  0  0  0  0  0  0  0  0  0  0
   25.8340   17.3040   13.3210 N   0  0  0  0  0  0  0  0  0  0  0  0
   25.6310   18.2000   14.4440 C   0  0  1  0  0  0  0  0  0  0  0  0
   26.3240   17.6680   15.6910 C   0  0  0  0  0  0  0  0  0  0  0  0
   26.1060   18.6340   16.8450 C   0  0  0  0  0  0  0  0  0  0  0  0
   26.5760   20.0260   16.4910 C   0  0  0  0  0  0  0  0  0  0  0  0
   27.0610   20.7870   17.3230 O   0  0  0  0  0  0  0  0  0  0  0  0
   26.4090   20.4180   15.1870 N   0  0  0  0  0  0  0  0  0  0  0  0
   26.1970   19.5900   14.1110 C   0  0  0  0  0  0  0  0  0  0  0  0
   26.4430   19.9730   12.9680 O   0  0  0  0  0  0  0  0  0  0  0  0
   26.3610   15.7580   11.1180 N   0  0  0  0  0  0  0  0  0  0  0  0
   26.6800   15.3120    9.8720 N   0  0  0  0  0  0  0  0  0  0  0  0
   28.8910   11.2620    8.1340 C   0  0  0  0  0  0  0  0  0  0  0  0
   27.9140   10.8420    7.3570 N   0  0  0  0  0  0  0  0  0  0  0  0
   24.8497    9.5640    8.8806 H   0  0  0  0  0  0  0  0  0  0  0  0
   23.8507    9.4948    7.3893 H   0  0  0  0  0  0  0  0  0  0  0  0
   25.5127    8.8135    7.3893 H   0  0  0  0  0  0  0  0  0  0  0  0
   25.5365   10.9669    6.2548 H   0  0  0  0  0  0  0  0  0  0  0  0
   24.7184   11.7410    7.6806 H   0  0  0  0  0  0  0  0  0  0  0  0
   26.3209   12.4231    9.8223 H   0  0  0  0  0  0  0  0  0  0  0  0
   24.0606   16.2539    7.9275 H   0  0  0  0  0  0  0  0  0  0  0  0
   23.3334   17.1025   10.1301 H   0  0  0  0  0  0  0  0  0  0  0  0
   26.7770   16.9415   13.1205 H   0  0  0  0  0  0  0  0  0  0  0  0
   24.5503   18.2704   14.6365 H   0  0  0  0  0  0  0  0  0  0  0  0
   25.9049   16.6850   15.9519 H   0  0  0  0  0  0  0  0  0  0  0  0
   27.4020   17.5678   15.4961 H   0  0  0  0  0  0  0  0  0  0  0  0
   25.0333   18.6683   17.0860 H   0  0  0  0  0  0  0  0  0  0  0  0
   26.6875   18.2801   17.7091 H   0  0  0  0  0  0  0  0  0  0  0  0
   26.4461   21.4295   14.9962 H   0  0  0  0  0  0  0  0  0  0  0  0
   29.9623   11.1311    7.9213 H   0  0  0  0  0  0  0  0  0  0  0  0
  1  2  1  0
  2  3  1  0
  3  4  2  0
  4  5  1  0
  5  6  1  0
  6  7  2  0
  6  8  2  0
  6  9  1  0
  9 10  1  0
 10 11  2  0
 11 12  1  0
 12 13  2  0
 13 14  1  0
 14 15  2  0
 15 16  1  0
 16 17  1  0
 17 18  2  0
 17 19  1  0
 19 20  1  0
 20 21  1  0
 21 22  1  0
 22 23  1  0
 23 24  2  0
 23 25  1  0
 25 26  1  0
 26 27  2  0
 16 28  2  0
 28 29  1  0
  5 30  1  0
 30 31  2  0
 31  3  1  0
 29 10  1  0
 29 13  1  0
 26 20  1  0
  1 32  1  0
  1 33  1  0
  1 34  1  0
  2 35  1  0
  2 36  1  0
  4 37  1  0
 14 38  1  0
 15 39  1  0
 19 40  1  0
 20 41  1  1
 21 42  1  0
 21 43  1  0
 22 44  1  0
 22 45  1  0
 25 46  1  0
 30 47  1  0
M  END
>  <meeko>  (533) 
{"is_sidechain": [true], "free_energy": -12.19, "intermolecular_energy": 0.0, "internal_energy": -12.19, "cluster_size": 19, "cluster_id": 1, "rank_in_cluster": 1}

>  <_RMSD_MCS_to_ref>  (533) 
0.9760246467744097

$$$$
ligand
     RDKit          3D

 53 57  0  0  0  0  0  0  0  0999 V2000
   24.8540    9.4020    7.6050 C   0  0  0  0  0  0  0  0  0  0  0  0
   25.5230   10.7550    7.4270 C   0  0  0  0  0  0  0  0  0  0  0  0
   24.9720   11.5070    6.2660 C   0  0  0  0  0  0  0  0  0  0  0  0
   25.6450   12.2020    5.2810 C   0  0  0  0  0  0  0  0  0  0  0  0
   24.6550   12.6640    4.4610 N   0  0  0  0  0  0  0  0  0  0  0  0
   24.8500   13.7880    3.2220 S   0  0  0  0  0  6  0  0  0  0  0  0
   25.7510   13.1510    2.2800 O   0  0  0  0  0  0  0  0  0  0  0  0
   23.5020   14.1680    2.8470 O   0  0  0  0  0  0  0  0  0  0  0  0
   25.6000   15.0720    3.8910 O   0  0  0  0  0  0  0  0  0  0  0  0
   25.2500   15.5570    5.1200 C   0  0  0  0  0  0  0  0  0  0  0  0
   24.4410   16.6520    5.3770 C   0  0  0  0  0  0  0  0  0  0  0  0
   24.1300   17.0860    6.6240 N   0  0  0  0  0  0  0  0  0  0  0  0
   24.6350   16.4190    7.6770 C   0  0  0  0  0  0  0  0  0  0  0  0
   24.3310   16.8470    8.9630 C   0  0  0  0  0  0  0  0  0  0  0  0
   24.8240   16.1930   10.1030 C   0  0  0  0  0  0  0  0  0  0  0  0
   24.5010   16.6410   11.4470 C   0  0  0  0  0  0  0  0  0  0  0  0
   25.2710   17.4240   12.2780 C   0  0  0  0  0  0  0  0  0  0  0  0
   24.5230   17.5370   13.4130 N   0  0  0  0  0  0  0  0  0  0  0  0
   24.8320   18.2950   14.6130 C   0  0  1  0  0  0  0  0  0  0  0  0
   25.9120   17.6230   15.4670 C   0  0  0  0  0  0  0  0  0  0  0  0
   26.2210   18.4870   16.6780 C   0  0  0  0  0  0  0  0  0  0  0  0
   26.6440   19.8750   16.2600 C   0  0  0  0  0  0  0  0  0  0  0  0
   27.2900   20.6140   16.9970 O   0  0  0  0  0  0  0  0  0  0  0  0
   26.1880   20.3090   15.0410 N   0  0  0  0  0  0  0  0  0  0  0  0
   25.2190   19.7210   14.2590 C   0  0  0  0  0  0  0  0  0  0  0  0
   24.6480   20.3830   13.3930 O   0  0  0  0  0  0  0  0  0  0  0  0
   23.3530   16.8850   13.2950 N   0  0  0  0  0  0  0  0  0  0  0  0
   23.3300   16.3290   12.0920 N   0  0  0  0  0  0  0  0  0  0  0  0
   25.6480   15.0750    9.9270 C   0  0  0  0  0  0  0  0  0  0  0  0
   25.9700   14.6260    8.6460 C   0  0  0  0  0  0  0  0  0  0  0  0
   25.4670   15.2930    7.5180 C   0  0  0  0  0  0  0  0  0  0  0  0
   25.7680   14.8720    6.2150 C   0  0  0  0  0  0  0  0  0  0  0  0
   23.4500   12.3280    4.9870 C   0  0  0  0  0  0  0  0  0  0  0  0
   23.6070   11.6010    6.0740 N   0  0  0  0  0  0  0  0  0  0  0  0
   24.7464    9.1845    8.6779 H   0  0  0  0  0  0  0  0  0  0  0  0
   23.8606    9.4192    7.1330 H   0  0  0  0  0  0  0  0  0  0  0  0
   25.4708    8.6230    7.1330 H   0  0  0  0  0  0  0  0  0  0  0  0
   25.3683   11.3494    8.3396 H   0  0  0  0  0  0  0  0  0  0  0  0
   26.5927   10.5805    7.2391 H   0  0  0  0  0  0  0  0  0  0  0  0
   26.7303   12.3499    5.1797 H   0  0  0  0  0  0  0  0  0  0  0  0
   24.0264   17.2019    4.5192 H   0  0  0  0  0  0  0  0  0  0  0  0
   23.6832   17.7266    9.0922 H   0  0  0  0  0  0  0  0  0  0  0  0
   26.2608   17.8581   12.0736 H   0  0  0  0  0  0  0  0  0  0  0  0
   23.9191   18.3218   15.2262 H   0  0  0  0  0  0  0  0  0  0  0  0
   25.5527   16.6389   15.8024 H   0  0  0  0  0  0  0  0  0  0  0  0
   26.8252   17.4988   14.8665 H   0  0  0  0  0  0  0  0  0  0  0  0
   25.3215   18.5594   17.3069 H   0  0  0  0  0  0  0  0  0  0  0  0
   27.0467   18.0231   17.2375 H   0  0  0  0  0  0  0  0  0  0  0  0
   26.6174   21.1687   14.6702 H   0  0  0  0  0  0  0  0  0  0  0  0
   26.0449   14.5462   10.8061 H   0  0  0  0  0  0  0  0  0  0  0  0
   26.6195   13.7473    8.5196 H   0  0  0  0  0  0  0  0  0  0  0  0
   26.4159   13.9971    6.0577 H   0  0  0  0  0  0  0  0  0  0  0  0
   22.4778   12.6218    4.5645 H   0  0  0  0  0  0  0  0  0  0  0  0
  1  2  1  0
  2  3  1  0
  3  4  2  0
  4  5  1  0
  5  6  1  0
  6  7  2  0
  6  8  2  0
  6  9  1  0
  9 10  1  0
 10 11  2  0
 11 12  1  0
 12 13  2  0
 13 14  1  0
 14 15  2  0
 15 16  1  0
 16 17  2  0
 17 18  1  0
 18 19  1  0
 19 20  1  0
 20 21  1  0
 21 22  1  0
 22 23  2  0
 22 24  1  0
 24 25  1  0
 25 26  2  0
 18 27  1  0
 27 28  2  0
 15 29  1  0
 29 30  2  0
 30 31  1  0
 31 32  2  0
  5 33  1  0
 33 34  2  0
 34  3  1  0
 32 10  1  0
 31 13  1  0
 28 16  1  0
 25 19  1  0
  1 35  1  0
  1 36  1  0
  1 37  1  0
  2 38  1  0
  2 39  1  0
  4 40  1  0
 11 41  1  0
 14 42  1  0
 17 43  1  0
 19 44  1  1
 20 45  1  0
 20 46  1  0
 21 47  1  0
 21 48  1  0
 24 49  1  0
 29 50  1  0
 30 51  1  0
 32 52  1  0
 33 53  1  0
M  END
>  <meeko>  (534) 
{"is_sidechain": [true], "free_energy": -12.18, "intermolecular_energy": 0.0, "internal_energy": -12.18, "cluster_size": 17, "cluster_id": 1, "rank_in_cluster": 1}

>  <_RMSD_MCS_to_ref>  (534) 
0.35104748016946835

$$$$
ligand
     RDKit          3D

 56 60  0  0  0  0  0  0  0  0999 V2000
   24.8710    9.6170    7.7820 C   0  0  0  0  0  0  0  0  0  0  0  0
   25.4240   10.9640    7.3490 C   0  0  0  0  0  0  0  0  0  0  0  0
   26.5630   11.4000    8.2000 C   0  0  0  0  0  0  0  0  0  0  0  0
   27.6890   12.1150    7.8440 C   0  0  0  0  0  0  0  0  0  0  0  0
   28.4050   12.2120    9.0020 N   0  0  0  0  0  0  0  0  0  0  0  0
   29.7380   13.2140    9.2480 S   0  0  0  0  0  6  0  0  0  0  0  0
   29.9240   13.2440   10.6860 O   0  0  0  0  0  0  0  0  0  0  0  0
   30.7580   12.6920    8.3570 O   0  0  0  0  0  0  0  0  0  0  0  0
   29.2640   14.7000    8.7530 O   0  0  0  0  0  0  0  0  0  0  0  0
   28.5610   14.7900    7.5800 C   0  0  0  0  0  0  0  0  0  0  0  0
   29.1900   14.4800    6.3770 C   0  0  0  0  0  0  0  0  0  0  0  0
   28.4500   14.6010    5.2180 C   0  0  0  0  0  0  0  0  0  0  0  0
   27.1630   15.0120    5.1920 N   0  0  0  0  0  0  0  0  0  0  0  0
   26.5900   15.3170    6.3810 C   0  0  0  0  0  0  0  0  0  0  0  0
   27.2350   15.2350    7.6120 C   0  0  0  0  0  0  0  0  0  0  0  0
   26.5480   15.5880    8.8580 C   0  0  0  0  0  0  0  0  0  0  0  0
   25.3680   14.9040    9.2390 C   0  0  0  0  0  0  0  0  0  0  0  0
   24.6920   15.2230   10.4190 C   0  0  0  0  0  0  0  0  0  0  0  0
   25.2170   16.2350   11.1970 C   0  0  0  0  0  0  0  0  0  0  0  0
   26.3800   16.9200   10.8540 C   0  0  0  0  0  0  0  0  0  0  0  0
   27.0580   16.6060    9.6880 C   0  0  0  0  0  0  0  0  0  0  0  0
   26.6860   17.9590   11.8840 C   0  0  0  0  0  0  0  0  0  0  0  0
   25.5640   17.8250   12.8070 N   0  0  0  0  0  0  0  0  0  0  0  0
   25.4630   18.5290   14.0840 C   0  0  1  0  0  0  0  0  0  0  0  0
   26.4180   17.9260   15.1140 C   0  0  0  0  0  0  0  0  0  0  0  0
   26.2100   18.5870   16.4670 C   0  0  0  0  0  0  0  0  0  0  0  0
   26.3730   20.0850   16.3740 C   0  0  0  0  0  0  0  0  0  0  0  0
   26.8140   20.7580   17.3000 O   0  0  0  0  0  0  0  0  0  0  0  0
   25.9680   20.6740   15.2040 N   0  0  0  0  0  0  0  0  0  0  0  0
   25.6810   20.0490   14.0100 C   0  0  0  0  0  0  0  0  0  0  0  0
   25.5810   20.7150   12.9820 O   0  0  0  0  0  0  0  0  0  0  0  0
   24.7190   16.7840   12.4620 C   0  0  0  0  0  0  0  0  0  0  0  0
   23.7610   16.3620   13.0800 O   0  0  0  0  0  0  0  0  0  0  0  0
   27.6930   11.6510   10.0130 C   0  0  0  0  0  0  0  0  0  0  0  0
   26.5750   11.1270    9.5550 N   0  0  0  0  0  0  0  0  0  0  0  0
   24.8498    9.5653    8.8806 H   0  0  0  0  0  0  0  0  0  0  0  0
   23.8505    9.4962    7.3895 H   0  0  0  0  0  0  0  0  0  0  0  0
   25.5122    8.8140    7.3895 H   0  0  0  0  0  0  0  0  0  0  0  0
   25.7683   10.8879    6.3071 H   0  0  0  0  0  0  0  0  0  0  0  0
   24.6207   11.7087    7.4501 H   0  0  0  0  0  0  0  0  0  0  0  0
   27.9497   12.5152    6.8531 H   0  0  0  0  0  0  0  0  0  0  0  0
   30.2392   14.1504    6.3512 H   0  0  0  0  0  0  0  0  0  0  0  0
   28.9346   14.3490    4.2632 H   0  0  0  0  0  0  0  0  0  0  0  0
   25.5425   15.6527    6.3733 H   0  0  0  0  0  0  0  0  0  0  0  0
   24.9757   14.1052    8.5925 H   0  0  0  0  0  0  0  0  0  0  0  0
   23.7775   14.6889   10.7164 H   0  0  0  0  0  0  0  0  0  0  0  0
   27.9788   17.1421    9.4145 H   0  0  0  0  0  0  0  0  0  0  0  0
   27.6420   17.7514   12.3869 H   0  0  0  0  0  0  0  0  0  0  0  0
   26.7946   18.9716   11.4682 H   0  0  0  0  0  0  0  0  0  0  0  0
   24.4171   18.3881   14.3943 H   0  0  0  0  0  0  0  0  0  0  0  0
   26.2241   16.8468   15.2024 H   0  0  0  0  0  0  0  0  0  0  0  0
   27.4546   18.0937   14.7863 H   0  0  0  0  0  0  0  0  0  0  0  0
   25.1957   18.3581   16.8259 H   0  0  0  0  0  0  0  0  0  0  0  0
   26.9657   18.1972   17.1648 H   0  0  0  0  0  0  0  0  0  0  0  0
   25.8669   21.6989   15.2193 H   0  0  0  0  0  0  0  0  0  0  0  0
   28.0063   11.6363   11.0673 H   0  0  0  0  0  0  0  0  0  0  0  0
  1  2  1  0
  2  3  1  0
  3  4  2  0
  4  5  1  0
  5  6  1  0
  6  7  2  0
  6  8  2  0
  6  9  1  0
  9 10  1  0
 10 11  2  0
 11 12  1  0
 12 13  2  0
 13 14  1  0
 14 15  2  0
 15 16  1  0
 16 17  2  0
 17 18  1  0
 18 19  2  0
 19 20  1  0
 20 21  2  0
 20 22  1  0
 22 23  1  0
 23 24  1  0
 24 25  1  0
 25 26  1  0
 26 27  1  0
 27 28  2  0
 27 29  1  0
 29 30  1  0
 30 31  2  0
 23 32  1  0
 32 33  2  0
  5 34  1  0
 34 35  2  0
 35  3  1  0
 15 10  1  0
 21 16  1  0
 30 24  1  0
 32 19  1  0
  1 36  1  0
  1 37  1  0
  1 38  1  0
  2 39  1  0
  2 40  1  0
  4 41  1  0
 11 42  1  0
 12 43  1  0
 14 44  1  0
 17 45  1  0
 18 46  1  0
 21 47  1  0
 22 48  1  0
 22 49  1  0
 24 50  1  1
 25 51  1  0
 25 52  1  0
 26 53  1  0
 26 54  1  0
 29 55  1  0
 34 56  1  0
M  END
>  <meeko>  (535) 
{"is_sidechain": [true], "free_energy": -12.18, "intermolecular_energy": 0.0, "internal_energy": -12.18, "cluster_size": 12, "cluster_id": 1, "rank_in_cluster": 1}

>  <_RMSD_MCS_to_ref>  (535) 
1.079064604670467

$$$$
ligand
     RDKit          3D

 63 68  0  0  0  0  0  0  0  0999 V2000
   24.8710    9.6160    7.7820 C   0  0  0  0  0  0  0  0  0  0  0  0
   25.4240   10.9650    7.3490 C   0  0  0  0  0  0  0  0  0  0  0  0
   26.9070   11.0240    7.4530 C   0  0  0  0  0  0  0  0  0  0  0  0
   27.7590   12.0690    7.1550 C   0  0  0  0  0  0  0  0  0  0  0  0
   28.9990   11.5890    7.4700 N   0  0  0  0  0  0  0  0  0  0  0  0
   30.4620   12.3680    7.1670 S   0  0  0  0  0  6  0  0  0  0  0  0
   30.6420   12.2990    5.7290 O   0  0  0  0  0  0  0  0  0  0  0  0
   31.4140   11.7360    8.0660 O   0  0  0  0  0  0  0  0  0  0  0  0
   30.2740   13.9220    7.6430 O   0  0  0  0  0  0  0  0  0  0  0  0
   29.0720   14.2660    8.1860 C   0  0  0  0  0  0  0  0  0  0  0  0
   28.7770   13.9490    9.5070 C   0  0  0  0  0  0  0  0  0  0  0  0
   27.5310   14.3100   10.0500 C   0  0  0  0  0  0  0  0  0  0  0  0
   26.5580   14.9840    9.2840 C   0  0  0  0  0  0  0  0  0  0  0  0
   25.2820   15.3700    9.8810 C   0  0  0  0  0  0  0  0  0  0  0  0
   24.0610   15.0220    9.2730 C   0  0  0  0  0  0  0  0  0  0  0  0
   22.8240   15.4090    9.8260 C   0  0  0  0  0  0  0  0  0  0  0  0
   22.7780   16.1530   11.0030 C   0  0  0  0  0  0  0  0  0  0  0  0
   23.9820   16.4790   11.5940 C   0  0  0  0  0  0  0  0  0  0  0  0
   25.2160   16.1020   11.0610 C   0  0  0  0  0  0  0  0  0  0  0  0
   26.3180   16.6190   11.9280 C   0  0  0  0  0  0  0  0  0  0  0  0
   25.5980   17.2570   13.0220 N   0  0  0  0  0  0  0  0  0  0  0  0
   26.2300   18.1560   13.9790 C   0  0  1  0  0  0  0  0  0  0  0  0
   25.5220   19.5040   14.0720 C   0  0  0  0  0  0  0  0  0  0  0  0
   26.2920   20.4140   15.0160 C   0  0  0  0  0  0  0  0  0  0  0  0
   26.4700   19.7730   16.3730 C   0  0  0  0  0  0  0  0  0  0  0  0
   26.4660   20.4240   17.4130 O   0  0  0  0  0  0  0  0  0  0  0  0
   26.6600   18.4140   16.3900 N   0  0  0  0  0  0  0  0  0  0  0  0
   26.3100   17.5390   15.3870 C   0  0  0  0  0  0  0  0  0  0  0  0
   26.0760   16.3600   15.6440 O   0  0  0  0  0  0  0  0  0  0  0  0
   24.2270   17.2560   12.8130 C   0  0  0  0  0  0  0  0  0  0  0  0
   23.3670   17.7900   13.4870 O   0  0  0  0  0  0  0  0  0  0  0  0
   26.8690   15.2730    7.9540 C   0  0  0  0  0  0  0  0  0  0  0  0
   28.1060   14.9070    7.4330 C   0  0  0  0  0  0  0  0  0  0  0  0
   28.1650   15.3260    6.0410 C   0  0  0  0  0  0  0  0  0  0  0  0
   29.1300   15.1440    5.3180 O   0  0  0  0  0  0  0  0  0  0  0  0
   26.8750   16.0020    5.6600 C   0  0  0  0  0  0  0  0  0  0  0  0
   26.0120   15.9600    6.9320 C   0  0  0  0  0  0  0  0  0  0  0  0
   28.8910   10.2910    7.8490 C   0  0  0  0  0  0  0  0  0  0  0  0
   27.6250    9.9270    7.8840 N   0  0  0  0  0  0  0  0  0  0  0  0
   24.8497    9.5640    8.8806 H   0  0  0  0  0  0  0  0  0  0  0  0
   23.8507    9.4948    7.3893 H   0  0  0  0  0  0  0  0  0  0  0  0
   25.5127    8.8135    7.3893 H   0  0  0  0  0  0  0  0  0  0  0  0
   25.1347   11.1474    6.3035 H   0  0  0  0  0  0  0  0  0  0  0  0
   25.0077   11.7315    8.0192 H   0  0  0  0  0  0  0  0  0  0  0  0
   27.4991   13.0605    6.7556 H   0  0  0  0  0  0  0  0  0  0  0  0
   29.5155   13.4177   10.1253 H   0  0  0  0  0  0  0  0  0  0  0  0
   27.3101   14.0603   11.0983 H   0  0  0  0  0  0  0  0  0  0  0  0
   24.0728   14.4337    8.3436 H   0  0  0  0  0  0  0  0  0  0  0  0
   21.8880   15.1216    9.3248 H   0  0  0  0  0  0  0  0  0  0  0  0
   21.8206   16.4680   11.4436 H   0  0  0  0  0  0  0  0  0  0  0  0
   26.9506   15.7978   12.2960 H   0  0  0  0  0  0  0  0  0  0  0  0
   27.0020   17.3009   11.4015 H   0  0  0  0  0  0  0  0  0  0  0  0
   27.2481   18.3174   13.5951 H   0  0  0  0  0  0  0  0  0  0  0  0
   25.4764   19.9644   13.0740 H   0  0  0  0  0  0  0  0  0  0  0  0
   24.5009   19.3575   14.4538 H   0  0  0  0  0  0  0  0  0  0  0  0
   27.2825   20.6217   14.5851 H   0  0  0  0  0  0  0  0  0  0  0  0
   25.7204   21.3451   15.1440 H   0  0  0  0  0  0  0  0  0  0  0  0
   27.1042   18.0130   17.2283 H   0  0  0  0  0  0  0  0  0  0  0  0
   27.0597   17.0418    5.3524 H   0  0  0  0  0  0  0  0  0  0  0  0
   26.3834   15.5047    4.8109 H   0  0  0  0  0  0  0  0  0  0  0  0
   25.7572   16.9782    7.2612 H   0  0  0  0  0  0  0  0  0  0  0  0
   25.0585   15.4360    6.7698 H   0  0  0  0  0  0  0  0  0  0  0  0
   29.7399    9.6352    8.0926 H   0  0  0  0  0  0  0  0  0  0  0  0
  1  2  1  0
  2  3  1  0
  3  4  2  0
  4  5  1  0
  5  6  1  0
  6  7  2  0
  6  8  2  0
  6  9  1  0
  9 10  1  0
 10 11  2  0
 11 12  1  0
 12 13  2  0
 13 14  1  0
 14 15  2  0
 15 16  1  0
 16 17  2  0
 17 18  1  0
 18 19  2  0
 19 20  1  0
 20 21  1  0
 21 22  1  0
 22 23  1  0
 23 24  1  0
 24 25  1  0
 25 26  2  0
 25 27  1  0
 27 28  1  0
 28 29  2  0
 21 30  1  0
 30 31  2  0
 13 32  1  0
 32 33  2  0
 33 34  1  0
 34 35  2  0
 34 36  1  0
 36 37  1  0
  5 38  1  0
 38 39  2  0
 39  3  1  0
 33 10  1  0
 19 14  1  0
 28 22  1  0
 37 32  1  0
 30 18  1  0
  1 40  1  0
  1 41  1  0
  1 42  1  0
  2 43  1  0
  2 44  1  0
  4 45  1  0
 11 46  1  0
 12 47  1  0
 15 48  1  0
 16 49  1  0
 17 50  1  0
 20 51  1  0
 20 52  1  0
 22 53  1  6
 23 54  1  0
 23 55  1  0
 24 56  1  0
 24 57  1  0
 27 58  1  0
 36 59  1  0
 36 60  1  0
 37 61  1  0
 37 62  1  0
 38 63  1  0
M  END
>  <meeko>  (536) 
{"is_sidechain": [true], "free_energy": -12.18, "intermolecular_energy": 0.0, "internal_energy": -12.18, "cluster_size": 17, "cluster_id": 1, "rank_in_cluster": 1}

>  <_RMSD_MCS_to_ref>  (536) 
1.889707134863907

$$$$
ligand
     RDKit          3D

 58 62  0  0  0  0  0  0  0  0999 V2000
   24.8540    9.4020    7.6050 C   0  0  0  0  0  0  0  0  0  0  0  0
   25.5230   10.7550    7.4270 C   0  0  0  0  0  0  0  0  0  0  0  0
   25.0130   11.4850    6.2320 C   0  0  0  0  0  0  0  0  0  0  0  0
   25.5210   12.6180    5.6290 C   0  0  0  0  0  0  0  0  0  0  0  0
   24.6860   12.8420    4.5710 N   0  0  0  0  0  0  0  0  0  0  0  0
   24.6390   14.2160    3.6160 S   0  0  0  0  0  6  0  0  0  0  0  0
   23.2740   14.6920    3.6900 O   0  0  0  0  0  0  0  0  0  0  0  0
   25.3000   13.8800    2.3720 O   0  0  0  0  0  0  0  0  0  0  0  0
   25.5750   15.4810    4.2830 C   0  0  0  0  0  0  0  0  0  0  0  0
   26.4060   16.2830    3.5340 C   0  0  0  0  0  0  0  0  0  0  0  0
   26.9880   17.2240    4.3180 O   0  0  0  0  0  0  0  0  0  0  0  0
   26.5360   17.0230    5.5850 C   0  0  0  0  0  0  0  0  0  0  0  0
   26.8970   17.7920    6.6900 C   0  0  0  0  0  0  0  0  0  0  0  0
   26.3180   17.4460    7.9160 C   0  0  0  0  0  0  0  0  0  0  0  0
   25.4250   16.3730    8.0130 C   0  0  0  0  0  0  0  0  0  0  0  0
   24.8260   16.0520    9.3400 C   0  0  0  0  0  0  0  0  0  0  0  0
   24.2540   14.9770    9.4710 O   0  0  0  0  0  0  0  0  0  0  0  0
   25.0200   17.0190   10.3120 N   0  0  0  0  0  0  0  0  0  0  0  0
   24.5070   17.0270   11.6250 C   0  0  0  0  0  0  0  0  0  0  0  0
   23.4460   16.1560   11.9000 C   0  0  0  0  0  0  0  0  0  0  0  0
   22.8890   16.0970   13.1780 C   0  0  0  0  0  0  0  0  0  0  0  0
   23.3890   16.9050   14.1960 C   0  0  0  0  0  0  0  0  0  0  0  0
   24.4590   17.7750   13.9500 C   0  0  0  0  0  0  0  0  0  0  0  0
   25.0160   18.6870   15.0330 C   0  0  1  0  0  0  0  0  0  0  0  0
   26.0760   17.9420   15.8520 C   0  0  0  0  0  0  0  0  0  0  0  0
   26.5800   18.8330   16.9740 C   0  0  0  0  0  0  0  0  0  0  0  0
   27.1290   20.1290   16.4310 C   0  0  0  0  0  0  0  0  0  0  0  0
   27.9840   20.7810   17.0240 O   0  0  0  0  0  0  0  0  0  0  0  0
   26.5780   20.5820   15.2600 N   0  0  0  0  0  0  0  0  0  0  0  0
   25.5830   20.0030   14.5030 C   0  0  0  0  0  0  0  0  0  0  0  0
   25.1730   20.5800   13.4980 O   0  0  0  0  0  0  0  0  0  0  0  0
   25.0060   17.8310   12.6530 C   0  0  0  0  0  0  0  0  0  0  0  0
   25.1160   15.5920    6.8830 C   0  0  0  0  0  0  0  0  0  0  0  0
   25.6610   15.9370    5.6280 C   0  0  0  0  0  0  0  0  0  0  0  0
   23.7180   11.8870    4.5590 C   0  0  0  0  0  0  0  0  0  0  0  0
   23.8680   11.0680    5.5800 N   0  0  0  0  0  0  0  0  0  0  0  0
   24.7464    9.1845    8.6779 H   0  0  0  0  0  0  0  0  0  0  0  0
   23.8606    9.4192    7.1330 H   0  0  0  0  0  0  0  0  0  0  0  0
   25.4708    8.6230    7.1330 H   0  0  0  0  0  0  0  0  0  0  0  0
   25.3318   11.3648    8.3223 H   0  0  0  0  0  0  0  0  0  0  0  0
   26.5995   10.5817    7.2815 H   0  0  0  0  0  0  0  0  0  0  0  0
   26.3992   13.2071    5.9317 H   0  0  0  0  0  0  0  0  0  0  0  0
   26.5742   16.1757    2.4522 H   0  0  0  0  0  0  0  0  0  0  0  0
   27.6033   18.6308    6.6025 H   0  0  0  0  0  0  0  0  0  0  0  0
   26.5684   18.0259    8.8166 H   0  0  0  0  0  0  0  0  0  0  0  0
   25.6054   17.8235   10.0455 H   0  0  0  0  0  0  0  0  0  0  0  0
   23.0480   15.5125   11.1016 H   0  0  0  0  0  0  0  0  0  0  0  0
   22.0535   15.4111   13.3817 H   0  0  0  0  0  0  0  0  0  0  0  0
   22.9409   16.8598   15.1996 H   0  0  0  0  0  0  0  0  0  0  0  0
   24.1648   18.9608   15.6737 H   0  0  0  0  0  0  0  0  0  0  0  0
   25.6326   17.0310   16.2804 H   0  0  0  0  0  0  0  0  0  0  0  0
   26.9175   17.6723   15.1969 H   0  0  0  0  0  0  0  0  0  0  0  0
   25.7482   19.0538   17.6591 H   0  0  0  0  0  0  0  0  0  0  0  0
   27.3868   18.3058   17.5042 H   0  0  0  0  0  0  0  0  0  0  0  0
   26.9567   21.4695   14.8998 H   0  0  0  0  0  0  0  0  0  0  0  0
   25.8393   18.5187   12.4463 H   0  0  0  0  0  0  0  0  0  0  0  0
   24.4541   14.7186    6.9779 H   0  0  0  0  0  0  0  0  0  0  0  0
   22.9222   11.8093    3.8036 H   0  0  0  0  0  0  0  0  0  0  0  0
  1  2  1  0
  2  3  1  0
  3  4  2  0
  4  5  1  0
  5  6  1  0
  6  7  2  0
  6  8  2  0
  6  9  1  0
  9 10  2  0
 10 11  1  0
 11 12  1  0
 12 13  2  0
 13 14  1  0
 14 15  2  0
 15 16  1  0
 16 17  2  0
 16 18  1  0
 18 19  1  0
 19 20  2  0
 20 21  1  0
 21 22  2  0
 22 23  1  0
 23 24  1  0
 24 25  1  0
 25 26  1  0
 26 27  1  0
 27 28  2  0
 27 29  1  0
 29 30  1  0
 30 31  2  0
 23 32  2  0
 15 33  1  0
 33 34  2  0
  5 35  1  0
 35 36  2  0
 36  3  1  0
 34  9  1  0
 34 12  1  0
 32 19  1  0
 30 24  1  0
  1 37  1  0
  1 38  1  0
  1 39  1  0
  2 40  1  0
  2 41  1  0
  4 42  1  0
 10 43  1  0
 13 44  1  0
 14 45  1  0
 18 46  1  0
 20 47  1  0
 21 48  1  0
 22 49  1  0
 24 50  1  1
 25 51  1  0
 25 52  1  0
 26 53  1  0
 26 54  1  0
 29 55  1  0
 32 56  1  0
 33 57  1  0
 35 58  1  0
M  END
>  <meeko>  (537) 
{"is_sidechain": [true], "free_energy": -12.17, "intermolecular_energy": 0.0, "internal_energy": -12.17, "cluster_size": 5, "cluster_id": 2, "rank_in_cluster": 1}

>  <_RMSD_MCS_to_ref>  (537) 
0.4908942095808416

$$$$
ligand
     RDKit          3D

 58 63  0  0  0  0  0  0  0  0999 V2000
   24.8540    9.4020    7.6050 C   0  0  0  0  0  0  0  0  0  0  0  0
   25.5230   10.7550    7.4270 C   0  0  0  0  0  0  0  0  0  0  0  0
   27.0070   10.6570    7.4600 C   0  0  0  0  0  0  0  0  0  0  0  0
   27.9490   11.6080    7.1180 C   0  0  0  0  0  0  0  0  0  0  0  0
   29.1460   10.9960    7.3630 N   0  0  0  0  0  0  0  0  0  0  0  0
   30.6600   11.6140    7.0140 S   0  0  0  0  0  6  0  0  0  0  0  0
   30.5960   12.1290    5.6590 O   0  0  0  0  0  0  0  0  0  0  0  0
   31.6260   10.6160    7.4320 O   0  0  0  0  0  0  0  0  0  0  0  0
   30.9790   12.9950    8.0090 C   0  0  0  0  0  0  0  0  0  0  0  0
   32.2170   13.4420    8.3000 N   0  0  0  0  0  0  0  0  0  0  0  0
   31.9790   14.5220    9.0750 N   0  0  0  0  0  0  0  0  0  0  0  0
   30.6520   14.7770    9.2710 C   0  0  0  0  0  0  0  0  0  0  0  0
   30.1400   15.7920    9.9860 N   0  0  0  0  0  0  0  0  0  0  0  0
   28.7810   15.7850   10.0000 C   0  0  0  0  0  0  0  0  0  0  0  0
   27.9430   14.8580    9.3670 C   0  0  0  0  0  0  0  0  0  0  0  0
   26.4820   14.9680    9.4520 C   0  0  0  0  0  0  0  0  0  0  0  0
   25.6520   14.3760    8.4770 C   0  0  0  0  0  0  0  0  0  0  0  0
   24.2480   14.4660    8.5400 C   0  0  0  0  0  0  0  0  0  0  0  0
   23.6300   15.1470    9.5850 C   0  0  0  0  0  0  0  0  0  0  0  0
   24.4490   15.7200   10.5370 C   0  0  0  0  0  0  0  0  0  0  0  0
   25.8430   15.6460   10.4880 C   0  0  0  0  0  0  0  0  0  0  0  0
   26.4200   16.3740   11.6620 C   0  0  0  0  0  0  0  0  0  0  0  0
   25.2380   16.7780   12.4110 N   0  0  0  0  0  0  0  0  0  0  0  0
   25.2710   17.7620   13.4850 C   0  0  1  0  0  0  0  0  0  0  0  0
   26.0040   17.2520   14.7220 C   0  0  0  0  0  0  0  0  0  0  0  0
   25.9250   18.2970   15.8240 C   0  0  0  0  0  0  0  0  0  0  0  0
   26.4700   19.6270   15.3560 C   0  0  0  0  0  0  0  0  0  0  0  0
   27.0770   20.3880   16.1050 O   0  0  0  0  0  0  0  0  0  0  0  0
   26.2330   19.9610   14.0470 N   0  0  0  0  0  0  0  0  0  0  0  0
   25.9110   19.0860   13.0330 C   0  0  0  0  0  0  0  0  0  0  0  0
   26.1400   19.3830   11.8620 O   0  0  0  0  0  0  0  0  0  0  0  0
   24.0660   16.4800   11.7320 C   0  0  0  0  0  0  0  0  0  0  0  0
   22.9270   16.7760   12.0380 O   0  0  0  0  0  0  0  0  0  0  0  0
   28.5570   13.8190    8.6490 C   0  0  0  0  0  0  0  0  0  0  0  0
   29.9600   13.7870    8.5940 C   0  0  0  0  0  0  0  0  0  0  0  0
   28.9190    9.7210    7.7710 C   0  0  0  0  0  0  0  0  0  0  0  0
   27.6260    9.4900    7.8650 N   0  0  0  0  0  0  0  0  0  0  0  0
   24.7464    9.1845    8.6779 H   0  0  0  0  0  0  0  0  0  0  0  0
   23.8606    9.4192    7.1330 H   0  0  0  0  0  0  0  0  0  0  0  0
   25.4708    8.6230    7.1330 H   0  0  0  0  0  0  0  0  0  0  0  0
   25.2173   11.1766    6.4581 H   0  0  0  0  0  0  0  0  0  0  0  0
   25.2086   11.3994    8.2612 H   0  0  0  0  0  0  0  0  0  0  0  0
   27.7753   12.6248    6.7360 H   0  0  0  0  0  0  0  0  0  0  0  0
   32.7290   15.0998    9.4807 H   0  0  0  0  0  0  0  0  0  0  0  0
   28.2888   16.5895   10.5662 H   0  0  0  0  0  0  0  0  0  0  0  0
   26.1150   13.8280    7.6431 H   0  0  0  0  0  0  0  0  0  0  0  0
   23.6351   13.9946    7.7576 H   0  0  0  0  0  0  0  0  0  0  0  0
   22.5347   15.2253    9.6494 H   0  0  0  0  0  0  0  0  0  0  0  0
   27.0607   15.7112   12.2621 H   0  0  0  0  0  0  0  0  0  0  0  0
   27.0610   17.2205   11.3745 H   0  0  0  0  0  0  0  0  0  0  0  0
   24.2186   17.9415   13.7501 H   0  0  0  0  0  0  0  0  0  0  0  0
   25.5353   16.3187   15.0673 H   0  0  0  0  0  0  0  0  0  0  0  0
   27.0581   17.0618   14.4715 H   0  0  0  0  0  0  0  0  0  0  0  0
   24.8740   18.4249   16.1226 H   0  0  0  0  0  0  0  0  0  0  0  0
   26.5307   17.9523   16.6751 H   0  0  0  0  0  0  0  0  0  0  0  0
   26.3022   20.9584   13.7993 H   0  0  0  0  0  0  0  0  0  0  0  0
   27.9547   13.0502    8.1428 H   0  0  0  0  0  0  0  0  0  0  0  0
   29.7052    8.9841    7.9921 H   0  0  0  0  0  0  0  0  0  0  0  0
  1  2  1  0
  2  3  1  0
  3  4  2  0
  4  5  1  0
  5  6  1  0
  6  7  2  0
  6  8  2  0
  6  9  1  0
  9 10  2  0
 10 11  1  0
 11 12  1  0
 12 13  2  0
 13 14  1  0
 14 15  2  0
 15 16  1  0
 16 17  2  0
 17 18  1  0
 18 19  2  0
 19 20  1  0
 20 21  2  0
 21 22  1  0
 22 23  1  0
 23 24  1  0
 24 25  1  0
 25 26  1  0
 26 27  1  0
 27 28  2  0
 27 29  1  0
 29 30  1  0
 30 31  2  0
 23 32  1  0
 32 33  2  0
 15 34  1  0
 34 35  2  0
  5 36  1  0
 36 37  2  0
 37  3  1  0
 35  9  1  0
 35 12  1  0
 21 16  1  0
 30 24  1  0
 32 20  1  0
  1 38  1  0
  1 39  1  0
  1 40  1  0
  2 41  1  0
  2 42  1  0
  4 43  1  0
 11 44  1  0
 14 45  1  0
 17 46  1  0
 18 47  1  0
 19 48  1  0
 22 49  1  0
 22 50  1  0
 24 51  1  1
 25 52  1  0
 25 53  1  0
 26 54  1  0
 26 55  1  0
 29 56  1  0
 34 57  1  0
 36 58  1  0
M  END
>  <meeko>  (538) 
{"is_sidechain": [true], "free_energy": -12.17, "intermolecular_energy": 0.0, "internal_energy": -12.17, "cluster_size": 15, "cluster_id": 1, "rank_in_cluster": 1}

>  <_RMSD_MCS_to_ref>  (538) 
1.5583064525310806

$$$$
ligand
     RDKit          3D

 61 66  0  0  0  0  0  0  0  0999 V2000
   24.8540    9.4020    7.6050 C   0  0  0  0  0  0  0  0  0  0  0  0
   25.5230   10.7550    7.4270 C   0  0  0  0  0  0  0  0  0  0  0  0
   24.7720   11.6440    6.4990 C   0  0  0  0  0  0  0  0  0  0  0  0
   25.1270   12.0870    5.2410 C   0  0  0  0  0  0  0  0  0  0  0  0
   24.0900   12.8900    4.8630 N   0  0  0  0  0  0  0  0  0  0  0  0
   23.9780   13.7720    3.4390 S   0  0  0  0  0  6  0  0  0  0  0  0
   22.9230   14.7460    3.6360 O   0  0  0  0  0  0  0  0  0  0  0  0
   23.9060   12.7600    2.4010 O   0  0  0  0  0  0  0  0  0  0  0  0
   25.5200   14.6330    3.2870 C   0  0  0  0  0  0  0  0  0  0  0  0
   26.1240   14.6130    2.0280 C   0  0  0  0  0  0  0  0  0  0  0  0
   27.3440   15.2300    1.8940 C   0  0  0  0  0  0  0  0  0  0  0  0
   27.9750   15.8440    2.9120 N   0  0  0  0  0  0  0  0  0  0  0  0
   27.3830   15.8850    4.1150 C   0  0  0  0  0  0  0  0  0  0  0  0
   28.0570   16.5420    5.1330 C   0  0  0  0  0  0  0  0  0  0  0  0
   27.5310   16.6500    6.4220 C   0  0  0  0  0  0  0  0  0  0  0  0
   26.2890   16.0960    6.7260 C   0  0  0  0  0  0  0  0  0  0  0  0
   25.7220   16.2000    8.0780 C   0  0  0  0  0  0  0  0  0  0  0  0
   24.5110   15.5370    8.4010 C   0  0  0  0  0  0  0  0  0  0  0  0
   23.9420   15.6140    9.6800 C   0  0  0  0  0  0  0  0  0  0  0  0
   24.5990   16.3590   10.6390 C   0  0  0  0  0  0  0  0  0  0  0  0
   25.7890   17.0080   10.3250 C   0  0  0  0  0  0  0  0  0  0  0  0
   26.3690   16.9520    9.0710 C   0  0  0  0  0  0  0  0  0  0  0  0
   26.2520   17.7180   11.5230 C   0  0  0  0  0  0  0  0  0  0  0  0
   27.2230   18.4470   11.5600 O   0  0  0  0  0  0  0  0  0  0  0  0
   25.3690   17.3990   12.5440 N   0  0  0  0  0  0  0  0  0  0  0  0
   25.3330   18.0720   13.8390 C   0  0  1  0  0  0  0  0  0  0  0  0
   26.3080   17.4930   14.8620 C   0  0  0  0  0  0  0  0  0  0  0  0
   26.1420   18.2240   16.1850 C   0  0  0  0  0  0  0  0  0  0  0  0
   26.3430   19.7130   16.0180 C   0  0  0  0  0  0  0  0  0  0  0  0
   26.6630   20.4390   16.9550 O   0  0  0  0  0  0  0  0  0  0  0  0
   26.0640   20.2370   14.7800 N   0  0  0  0  0  0  0  0  0  0  0  0
   25.5470   19.5860   13.6840 C   0  0  0  0  0  0  0  0  0  0  0  0
   25.1880   20.2250   12.6950 O   0  0  0  0  0  0  0  0  0  0  0  0
   24.2280   16.6360   12.0580 C   0  0  0  0  0  0  0  0  0  0  0  0
   25.5970   15.4350    5.6970 C   0  0  0  0  0  0  0  0  0  0  0  0
   26.1280   15.2990    4.3840 C   0  0  0  0  0  0  0  0  0  0  0  0
   23.1850   12.9550    5.8720 C   0  0  0  0  0  0  0  0  0  0  0  0
   23.5500   12.1740    6.8680 N   0  0  0  0  0  0  0  0  0  0  0  0
   24.7464    9.1845    8.6779 H   0  0  0  0  0  0  0  0  0  0  0  0
   23.8606    9.4192    7.1330 H   0  0  0  0  0  0  0  0  0  0  0  0
   25.4708    8.6230    7.1330 H   0  0  0  0  0  0  0  0  0  0  0  0
   25.5914   11.2467    8.4086 H   0  0  0  0  0  0  0  0  0  0  0  0
   26.5182   10.5813    6.9917 H   0  0  0  0  0  0  0  0  0  0  0  0
   26.0379   11.8476    4.6727 H   0  0  0  0  0  0  0  0  0  0  0  0
   25.6392   14.1199    1.1726 H   0  0  0  0  0  0  0  0  0  0  0  0
   27.8288   15.2219    0.9066 H   0  0  0  0  0  0  0  0  0  0  0  0
   29.0373   16.9925    4.9184 H   0  0  0  0  0  0  0  0  0  0  0  0
   28.1007   17.1757    7.2024 H   0  0  0  0  0  0  0  0  0  0  0  0
   24.0031   14.9449    7.6254 H   0  0  0  0  0  0  0  0  0  0  0  0
   22.9998   15.0961    9.9126 H   0  0  0  0  0  0  0  0  0  0  0  0
   27.3096   17.4811    8.8580 H   0  0  0  0  0  0  0  0  0  0  0  0
   24.3246   17.8898   14.2388 H   0  0  0  0  0  0  0  0  0  0  0  0
   26.0980   16.4227   15.0048 H   0  0  0  0  0  0  0  0  0  0  0  0
   27.3391   17.6173   14.4994 H   0  0  0  0  0  0  0  0  0  0  0  0
   25.1286   18.0402   16.5714 H   0  0  0  0  0  0  0  0  0  0  0  0
   26.9002   17.8476   16.8875 H   0  0  0  0  0  0  0  0  0  0  0  0
   26.2664   21.2394   14.6569 H   0  0  0  0  0  0  0  0  0  0  0  0
   24.1049   15.7017   12.6254 H   0  0  0  0  0  0  0  0  0  0  0  0
   23.2707   17.1675   12.1631 H   0  0  0  0  0  0  0  0  0  0  0  0
   24.6075   15.0066    5.9148 H   0  0  0  0  0  0  0  0  0  0  0  0
   22.2749   13.5728    5.8599 H   0  0  0  0  0  0  0  0  0  0  0  0
  1  2  1  0
  2  3  1  0
  3  4  2  0
  4  5  1  0
  5  6  1  0
  6  7  2  0
  6  8  2  0
  6  9  1  0
  9 10  2  0
 10 11  1  0
 11 12  2  0
 12 13  1  0
 13 14  2  0
 14 15  1  0
 15 16  2  0
 16 17  1  0
 17 18  2  0
 18 19  1  0
 19 20  2  0
 20 21  1  0
 21 22  2  0
 21 23  1  0
 23 24  2  0
 23 25  1  0
 25 26  1  0
 26 27  1  0
 27 28  1  0
 28 29  1  0
 29 30  2  0
 29 31  1  0
 31 32  1  0
 32 33  2  0
 25 34  1  0
 16 35  1  0
 35 36  2  0
  5 37  1  0
 37 38  2  0
 38  3  1  0
 36  9  1  0
 36 13  1  0
 22 17  1  0
 32 26  1  0
 34 20  1  0
  1 39  1  0
  1 40  1  0
  1 41  1  0
  2 42  1  0
  2 43  1  0
  4 44  1  0
 10 45  1  0
 11 46  1  0
 14 47  1  0
 15 48  1  0
 18 49  1  0
 19 50  1  0
 22 51  1  0
 26 52  1  1
 27 53  1  0
 27 54  1  0
 28 55  1  0
 28 56  1  0
 31 57  1  0
 34 58  1  0
 34 59  1  0
 35 60  1  0
 37 61  1  0
M  END
>  <meeko>  (539) 
{"is_sidechain": [true], "free_energy": -12.17, "intermolecular_energy": 0.0, "internal_energy": -12.17, "cluster_size": 19, "cluster_id": 1, "rank_in_cluster": 1}

>  <_RMSD_MCS_to_ref>  (539) 
0.9228972496076324

$$$$
ligand
     RDKit          3D

 60 65  0  0  0  0  0  0  0  0999 V2000
   24.8710    9.6160    7.7820 C   0  0  0  0  0  0  0  0  0  0  0  0
   25.4240   10.9650    7.3490 C   0  0  0  0  0  0  0  0  0  0  0  0
   26.8280   11.1680    7.8000 C   0  0  0  0  0  0  0  0  0  0  0  0
   27.2950   11.8770    8.8890 C   0  0  0  0  0  0  0  0  0  0  0  0
   28.6500   11.7090    8.8390 N   0  0  0  0  0  0  0  0  0  0  0  0
   29.7700   12.5340    9.7890 S   0  0  0  0  0  6  0  0  0  0  0  0
   29.4810   12.1770   11.1670 O   0  0  0  0  0  0  0  0  0  0  0  0
   31.0450   12.1650    9.1980 O   0  0  0  0  0  0  0  0  0  0  0  0
   29.5790   14.1420    9.5560 O   0  0  0  0  0  0  0  0  0  0  0  0
   28.4820   14.6250    8.8710 C   0  0  0  0  0  0  0  0  0  0  0  0
   27.3270   14.8960    9.6170 C   0  0  0  0  0  0  0  0  0  0  0  0
   26.1670   15.4090    9.0100 C   0  0  0  0  0  0  0  0  0  0  0  0
   24.9690   15.6710    9.8120 C   0  0  0  0  0  0  0  0  0  0  0  0
   23.6920   15.2840    9.3580 C   0  0  0  0  0  0  0  0  0  0  0  0
   22.5280   15.5460   10.1070 C   0  0  0  0  0  0  0  0  0  0  0  0
   22.6090   16.2030   11.3330 C   0  0  0  0  0  0  0  0  0  0  0  0
   23.8660   16.5690   11.7720 C   0  0  0  0  0  0  0  0  0  0  0  0
   25.0300   16.3150   11.0440 C   0  0  0  0  0  0  0  0  0  0  0  0
   26.2140   16.8340   11.7930 C   0  0  0  0  0  0  0  0  0  0  0  0
   25.6240   17.3320   13.0280 N   0  0  0  0  0  0  0  0  0  0  0  0
   26.3420   18.1640   13.9850 C   0  0  1  0  0  0  0  0  0  0  0  0
   25.8010   19.5900   14.0390 C   0  0  0  0  0  0  0  0  0  0  0  0
   26.6530   20.4170   14.9910 C   0  0  0  0  0  0  0  0  0  0  0  0
   26.7160   19.7810   16.3600 C   0  0  0  0  0  0  0  0  0  0  0  0
   26.7210   20.4420   17.3930 O   0  0  0  0  0  0  0  0  0  0  0  0
   26.7800   18.4110   16.3950 N   0  0  0  0  0  0  0  0  0  0  0  0
   26.3230   17.5710   15.4060 C   0  0  0  0  0  0  0  0  0  0  0  0
   25.9200   16.4440   15.6850 O   0  0  0  0  0  0  0  0  0  0  0  0
   24.2390   17.2610   13.0090 C   0  0  0  0  0  0  0  0  0  0  0  0
   23.4580   17.6820   13.8410 O   0  0  0  0  0  0  0  0  0  0  0  0
   26.1570   15.6690    7.6240 C   0  0  0  0  0  0  0  0  0  0  0  0
   27.3310   15.4170    6.9100 C   0  0  0  0  0  0  0  0  0  0  0  0
   27.6590   15.5620    5.5840 N   0  0  0  0  0  0  0  0  0  0  0  0
   28.9630   15.1820    5.4330 C   0  0  0  0  0  0  0  0  0  0  0  0
   29.4900   14.7940    6.5710 N   0  0  0  0  0  0  0  0  0  0  0  0
   28.4860   14.9130    7.4970 C   0  0  0  0  0  0  0  0  0  0  0  0
   28.9700   11.0080    7.7210 C   0  0  0  0  0  0  0  0  0  0  0  0
   27.8800   10.6350    7.0800 N   0  0  0  0  0  0  0  0  0  0  0  0
   24.8497    9.5640    8.8806 H   0  0  0  0  0  0  0  0  0  0  0  0
   23.8507    9.4948    7.3893 H   0  0  0  0  0  0  0  0  0  0  0  0
   25.5127    8.8135    7.3893 H   0  0  0  0  0  0  0  0  0  0  0  0
   25.3924   11.0250    6.2511 H   0  0  0  0  0  0  0  0  0  0  0  0
   24.8044   11.7480    7.8106 H   0  0  0  0  0  0  0  0  0  0  0  0
   26.7106   12.4461    9.6270 H   0  0  0  0  0  0  0  0  0  0  0  0
   27.3279   14.7034   10.7000 H   0  0  0  0  0  0  0  0  0  0  0  0
   23.6019   14.7635    8.3931 H   0  0  0  0  0  0  0  0  0  0  0  0
   21.5478   15.2295    9.7210 H   0  0  0  0  0  0  0  0  0  0  0  0
   21.7089   16.4211   11.9266 H   0  0  0  0  0  0  0  0  0  0  0  0
   26.9375   16.0306   11.9957 H   0  0  0  0  0  0  0  0  0  0  0  0
   26.7764   17.6006   11.2399 H   0  0  0  0  0  0  0  0  0  0  0  0
   27.3797   18.1901   13.6210 H   0  0  0  0  0  0  0  0  0  0  0  0
   25.8369   20.0347   13.0335 H   0  0  0  0  0  0  0  0  0  0  0  0
   24.7603   19.5754   14.3950 H   0  0  0  0  0  0  0  0  0  0  0  0
   27.6721   20.4954   14.5845 H   0  0  0  0  0  0  0  0  0  0  0  0
   26.1975   21.4133   15.0903 H   0  0  0  0  0  0  0  0  0  0  0  0
   27.2037   17.9771   17.2275 H   0  0  0  0  0  0  0  0  0  0  0  0
   25.2574   16.0562    7.1232 H   0  0  0  0  0  0  0  0  0  0  0  0
   27.0339   15.8972    4.8371 H   0  0  0  0  0  0  0  0  0  0  0  0
   29.5044   15.1991    4.4756 H   0  0  0  0  0  0  0  0  0  0  0  0
   29.9962   10.7826    7.3953 H   0  0  0  0  0  0  0  0  0  0  0  0
  1  2  1  0
  2  3  1  0
  3  4  2  0
  4  5  1  0
  5  6  1  0
  6  7  2  0
  6  8  2  0
  6  9  1  0
  9 10  1  0
 10 11  2  0
 11 12  1  0
 12 13  1  0
 13 14  2  0
 14 15  1  0
 15 16  2  0
 16 17  1  0
 17 18  2  0
 18 19  1  0
 19 20  1  0
 20 21  1  0
 21 22  1  0
 22 23  1  0
 23 24  1  0
 24 25  2  0
 24 26  1  0
 26 27  1  0
 27 28  2  0
 20 29  1  0
 29 30  2  0
 12 31  2  0
 31 32  1  0
 32 33  1  0
 33 34  1  0
 34 35  2  0
 35 36  1  0
  5 37  1  0
 37 38  2  0
 38  3  1  0
 36 10  1  0
 18 13  1  0
 27 21  1  0
 36 32  2  0
 29 17  1  0
  1 39  1  0
  1 40  1  0
  1 41  1  0
  2 42  1  0
  2 43  1  0
  4 44  1  0
 11 45  1  0
 14 46  1  0
 15 47  1  0
 16 48  1  0
 19 49  1  0
 19 50  1  0
 21 51  1  6
 22 52  1  0
 22 53  1  0
 23 54  1  0
 23 55  1  0
 26 56  1  0
 31 57  1  0
 33 58  1  0
 34 59  1  0
 37 60  1  0
M  END
>  <meeko>  (540) 
{"is_sidechain": [true], "free_energy": -12.17, "intermolecular_energy": 0.0, "internal_energy": -12.17, "cluster_size": 14, "cluster_id": 1, "rank_in_cluster": 1}

>  <_RMSD_MCS_to_ref>  (540) 
1.9163696581470568

$$$$
ligand
     RDKit          3D

 60 65  0  0  0  0  0  0  0  0999 V2000
   24.8710    9.6160    7.7820 C   0  0  0  0  0  0  0  0  0  0  0  0
   25.4240   10.9650    7.3490 C   0  0  0  0  0  0  0  0  0  0  0  0
   24.9710   11.3480    5.9850 C   0  0  0  0  0  0  0  0  0  0  0  0
   24.2070   12.4320    5.5980 C   0  0  0  0  0  0  0  0  0  0  0  0
   24.0740   12.2790    4.2460 N   0  0  0  0  0  0  0  0  0  0  0  0
   23.4100   13.4140    3.1950 S   0  0  0  0  0  6  0  0  0  0  0  0
   23.8220   12.9370    1.8850 O   0  0  0  0  0  0  0  0  0  0  0  0
   21.9970   13.5000    3.5220 O   0  0  0  0  0  0  0  0  0  0  0  0
   24.1440   14.8560    3.4330 O   0  0  0  0  0  0  0  0  0  0  0  0
   25.1470   14.9860    4.3630 C   0  0  0  0  0  0  0  0  0  0  0  0
   24.8140   15.2600    5.7070 C   0  0  0  0  0  0  0  0  0  0  0  0
   25.7840   15.4440    6.7600 C   0  0  0  0  0  0  0  0  0  0  0  0
   25.3090   15.7030    8.1320 C   0  0  0  0  0  0  0  0  0  0  0  0
   24.1390   15.0670    8.6180 C   0  0  0  0  0  0  0  0  0  0  0  0
   23.6660   15.2990    9.9130 C   0  0  0  0  0  0  0  0  0  0  0  0
   24.3850   16.1720   10.7030 C   0  0  0  0  0  0  0  0  0  0  0  0
   25.5360   16.8150   10.2580 C   0  0  0  0  0  0  0  0  0  0  0  0
   26.0090   16.5910    8.9740 C   0  0  0  0  0  0  0  0  0  0  0  0
   26.0620   17.7140   11.3250 C   0  0  0  0  0  0  0  0  0  0  0  0
   25.1790   17.4290   12.4480 N   0  0  0  0  0  0  0  0  0  0  0  0
   25.1950   18.2530   13.6520 C   0  0  2  0  0  0  0  0  0  0  0  0
   25.8330   19.6270   13.4500 C   0  0  0  0  0  0  0  0  0  0  0  0
   25.7420   20.4190   14.7450 C   0  0  0  0  0  0  0  0  0  0  0  0
   26.3920   19.6770   15.8890 C   0  0  0  0  0  0  0  0  0  0  0  0
   26.8110   20.2530   16.8880 O   0  0  0  0  0  0  0  0  0  0  0  0
   26.4180   18.3080   15.7990 N   0  0  0  0  0  0  0  0  0  0  0  0
   25.8650   17.5130   14.8210 C   0  0  0  0  0  0  0  0  0  0  0  0
   25.8340   16.2910   14.9590 O   0  0  0  0  0  0  0  0  0  0  0  0
   24.1250   16.6050   12.0810 C   0  0  0  0  0  0  0  0  0  0  0  0
   23.1480   16.2880   12.7300 O   0  0  0  0  0  0  0  0  0  0  0  0
   27.1820   15.3790    6.5150 C   0  0  0  0  0  0  0  0  0  0  0  0
   27.4700   15.1320    5.1760 C   0  0  0  0  0  0  0  0  0  0  0  0
   28.7210   15.0320    4.6360 C   0  0  0  0  0  0  0  0  0  0  0  0
   28.5050   14.8020    3.3070 N   0  0  0  0  0  0  0  0  0  0  0  0
   27.2040   14.7600    2.9570 N   0  0  0  0  0  0  0  0  0  0  0  0
   26.5300   14.9410    4.1050 C   0  0  0  0  0  0  0  0  0  0  0  0
   24.8020   11.2040    3.8460 C   0  0  0  0  0  0  0  0  0  0  0  0
   25.3340   10.5930    4.8860 N   0  0  0  0  0  0  0  0  0  0  0  0
   24.8497    9.5640    8.8806 H   0  0  0  0  0  0  0  0  0  0  0  0
   23.8507    9.4948    7.3893 H   0  0  0  0  0  0  0  0  0  0  0  0
   25.5127    8.8135    7.3893 H   0  0  0  0  0  0  0  0  0  0  0  0
   25.0865   11.7314    8.0623 H   0  0  0  0  0  0  0  0  0  0  0  0
   26.5212   10.8894    7.3309 H   0  0  0  0  0  0  0  0  0  0  0  0
   23.7996   13.2335    6.2317 H   0  0  0  0  0  0  0  0  0  0  0  0
   23.7484   15.3382    5.9684 H   0  0  0  0  0  0  0  0  0  0  0  0
   23.5909   14.3753    7.9614 H   0  0  0  0  0  0  0  0  0  0  0  0
   22.7570   14.8052   10.2870 H   0  0  0  0  0  0  0  0  0  0  0  0
   26.9173   17.0988    8.6175 H   0  0  0  0  0  0  0  0  0  0  0  0
   27.1064   17.4703   11.5698 H   0  0  0  0  0  0  0  0  0  0  0  0
   26.0719   18.7753   11.0359 H   0  0  0  0  0  0  0  0  0  0  0  0
   24.1390   18.4374   13.8988 H   0  0  0  0  0  0  0  0  0  0  0  0
   26.8891   19.5038   13.1681 H   0  0  0  0  0  0  0  0  0  0  0  0
   25.3026   20.1655   12.6508 H   0  0  0  0  0  0  0  0  0  0  0  0
   26.2496   21.3855   14.6103 H   0  0  0  0  0  0  0  0  0  0  0  0
   24.6793   20.5679   14.9869 H   0  0  0  0  0  0  0  0  0  0  0  0
   26.9120   17.8148   16.5563 H   0  0  0  0  0  0  0  0  0  0  0  0
   27.9481   15.5089    7.2936 H   0  0  0  0  0  0  0  0  0  0  0  0
   29.6868   15.1176    5.1556 H   0  0  0  0  0  0  0  0  0  0  0  0
   29.2706   14.6718    2.6304 H   0  0  0  0  0  0  0  0  0  0  0  0
   24.9297   10.8876    2.8003 H   0  0  0  0  0  0  0  0  0  0  0  0
  1  2  1  0
  2  3  1  0
  3  4  2  0
  4  5  1  0
  5  6  1  0
  6  7  2  0
  6  8  2  0
  6  9  1  0
  9 10  1  0
 10 11  2  0
 11 12  1  0
 12 13  1  0
 13 14  2  0
 14 15  1  0
 15 16  2  0
 16 17  1  0
 17 18  2  0
 17 19  1  0
 19 20  1  0
 20 21  1  0
 21 22  1  0
 22 23  1  0
 23 24  1  0
 24 25  2  0
 24 26  1  0
 26 27  1  0
 27 28  2  0
 20 29  1  0
 29 30  2  0
 12 31  2  0
 31 32  1  0
 32 33  2  0
 33 34  1  0
 34 35  1  0
 35 36  2  0
  5 37  1  0
 37 38  2  0
 38  3  1  0
 36 10  1  0
 18 13  1  0
 27 21  1  0
 36 32  1  0
 29 16  1  0
  1 39  1  0
  1 40  1  0
  1 41  1  0
  2 42  1  0
  2 43  1  0
  4 44  1  0
 11 45  1  0
 14 46  1  0
 15 47  1  0
 18 48  1  0
 19 49  1  0
 19 50  1  0
 21 51  1  1
 22 52  1  0
 22 53  1  0
 23 54  1  0
 23 55  1  0
 26 56  1  0
 31 57  1  0
 33 58  1  0
 34 59  1  0
 37 60  1  0
M  END
>  <meeko>  (541) 
{"is_sidechain": [true], "free_energy": -12.17, "intermolecular_energy": 0.0, "internal_energy": -12.17, "cluster_size": 11, "cluster_id": 1, "rank_in_cluster": 1}

>  <_RMSD_MCS_to_ref>  (541) 
1.7398923136671114

$$$$
ligand
     RDKit          3D

 56 60  0  0  0  0  0  0  0  0999 V2000
   24.8710    9.6170    7.7820 C   0  0  0  0  0  0  0  0  0  0  0  0
   25.4240   10.9640    7.3490 C   0  0  0  0  0  0  0  0  0  0  0  0
   26.8350   11.1580    7.7830 C   0  0  0  0  0  0  0  0  0  0  0  0
   27.3590   12.1160    8.6280 C   0  0  0  0  0  0  0  0  0  0  0  0
   28.6910   11.8200    8.6850 N   0  0  0  0  0  0  0  0  0  0  0  0
   29.8790   12.7630    9.4200 S   0  0  0  0  0  6  0  0  0  0  0  0
   31.1390   12.1500    9.0440 O   0  0  0  0  0  0  0  0  0  0  0  0
   29.4710   12.8320   10.8110 O   0  0  0  0  0  0  0  0  0  0  0  0
   29.7880   14.2760    8.8030 O   0  0  0  0  0  0  0  0  0  0  0  0
   29.1910   14.4750    7.5880 C   0  0  0  0  0  0  0  0  0  0  0  0
   29.8910   14.1740    6.4210 C   0  0  0  0  0  0  0  0  0  0  0  0
   29.2790   14.3750    5.1900 C   0  0  0  0  0  0  0  0  0  0  0  0
   27.9930   14.8820    5.1760 C   0  0  0  0  0  0  0  0  0  0  0  0
   27.3020   15.2040    6.2910 N   0  0  0  0  0  0  0  0  0  0  0  0
   27.9060   15.0230    7.4940 C   0  0  0  0  0  0  0  0  0  0  0  0
   27.0920   15.4130    8.6620 C   0  0  0  0  0  0  0  0  0  0  0  0
   25.9280   14.6670    8.9910 C   0  0  0  0  0  0  0  0  0  0  0  0
   25.1430   14.9730   10.1060 C   0  0  0  0  0  0  0  0  0  0  0  0
   25.5390   16.0440   10.8800 C   0  0  0  0  0  0  0  0  0  0  0  0
   26.6610   16.8130   10.5820 C   0  0  0  0  0  0  0  0  0  0  0  0
   27.4380   16.5150    9.4730 C   0  0  0  0  0  0  0  0  0  0  0  0
   26.8230   17.8990   11.5940 C   0  0  0  0  0  0  0  0  0  0  0  0
   25.6890   17.6720   12.4820 N   0  0  0  0  0  0  0  0  0  0  0  0
   25.5120   18.3370   13.7690 C   0  0  1  0  0  0  0  0  0  0  0  0
   26.3270   17.6360   14.8580 C   0  0  0  0  0  0  0  0  0  0  0  0
   26.0230   18.2580   16.2110 C   0  0  0  0  0  0  0  0  0  0  0  0
   26.2820   19.7450   16.1980 C   0  0  0  0  0  0  0  0  0  0  0  0
   26.6830   20.3530   17.1850 O   0  0  0  0  0  0  0  0  0  0  0  0
   26.0170   20.4030   15.0230 N   0  0  0  0  0  0  0  0  0  0  0  0
   25.8400   19.8400   13.7810 C   0  0  0  0  0  0  0  0  0  0  0  0
   25.9260   20.5390   12.7730 O   0  0  0  0  0  0  0  0  0  0  0  0
   24.9420   16.5640   12.1130 C   0  0  0  0  0  0  0  0  0  0  0  0
   24.0030   16.0670   12.7030 O   0  0  0  0  0  0  0  0  0  0  0  0
   28.9500   10.7710    7.8630 C   0  0  0  0  0  0  0  0  0  0  0  0
   27.8380   10.3320    7.3130 N   0  0  0  0  0  0  0  0  0  0  0  0
   24.8498    9.5653    8.8806 H   0  0  0  0  0  0  0  0  0  0  0  0
   23.8505    9.4962    7.3895 H   0  0  0  0  0  0  0  0  0  0  0  0
   25.5122    8.8140    7.3895 H   0  0  0  0  0  0  0  0  0  0  0  0
   25.3785   11.0296    6.2519 H   0  0  0  0  0  0  0  0  0  0  0  0
   24.8141   11.7476    7.8223 H   0  0  0  0  0  0  0  0  0  0  0  0
   26.8255   12.9313    9.1386 H   0  0  0  0  0  0  0  0  0  0  0  0
   30.9172   13.7814    6.4740 H   0  0  0  0  0  0  0  0  0  0  0  0
   29.8032   14.1373    4.2526 H   0  0  0  0  0  0  0  0  0  0  0  0
   27.5048   15.0317    4.2017 H   0  0  0  0  0  0  0  0  0  0  0  0
   25.6361   13.8232    8.3486 H   0  0  0  0  0  0  0  0  0  0  0  0
   24.2476   14.3849   10.3558 H   0  0  0  0  0  0  0  0  0  0  0  0
   28.3154   17.1314    9.2277 H   0  0  0  0  0  0  0  0  0  0  0  0
   27.7766   17.8011   12.1335 H   0  0  0  0  0  0  0  0  0  0  0  0
   26.8430   18.9079   11.1562 H   0  0  0  0  0  0  0  0  0  0  0  0
   24.4336   18.2584   13.9710 H   0  0  0  0  0  0  0  0  0  0  0  0
   26.0643   16.5681   14.8800 H   0  0  0  0  0  0  0  0  0  0  0  0
   27.3989   17.7502   14.6389 H   0  0  0  0  0  0  0  0  0  0  0  0
   24.9661   18.0799   16.4586 H   0  0  0  0  0  0  0  0  0  0  0  0
   26.6802   17.7962   16.9626 H   0  0  0  0  0  0  0  0  0  0  0  0
   25.9427   21.4289   15.0774 H   0  0  0  0  0  0  0  0  0  0  0  0
   29.9490   10.3475    7.6821 H   0  0  0  0  0  0  0  0  0  0  0  0
  1  2  1  0
  2  3  1  0
  3  4  2  0
  4  5  1  0
  5  6  1  0
  6  7  2  0
  6  8  2  0
  6  9  1  0
  9 10  1  0
 10 11  2  0
 11 12  1  0
 12 13  2  0
 13 14  1  0
 14 15  2  0
 15 16  1  0
 16 17  2  0
 17 18  1  0
 18 19  2  0
 19 20  1  0
 20 21  2  0
 20 22  1  0
 22 23  1  0
 23 24  1  0
 24 25  1  0
 25 26  1  0
 26 27  1  0
 27 28  2  0
 27 29  1  0
 29 30  1  0
 30 31  2  0
 23 32  1  0
 32 33  2  0
  5 34  1  0
 34 35  2  0
 35  3  1  0
 15 10  1  0
 21 16  1  0
 30 24  1  0
 32 19  1  0
  1 36  1  0
  1 37  1  0
  1 38  1  0
  2 39  1  0
  2 40  1  0
  4 41  1  0
 11 42  1  0
 12 43  1  0
 13 44  1  0
 17 45  1  0
 18 46  1  0
 21 47  1  0
 22 48  1  0
 22 49  1  0
 24 50  1  1
 25 51  1  0
 25 52  1  0
 26 53  1  0
 26 54  1  0
 29 55  1  0
 34 56  1  0
M  END
>  <meeko>  (542) 
{"is_sidechain": [true], "free_energy": -12.16, "intermolecular_energy": 0.0, "internal_energy": -12.16, "cluster_size": 13, "cluster_id": 1, "rank_in_cluster": 1}

>  <_RMSD_MCS_to_ref>  (542) 
1.4357388341895612

$$$$
ligand
     RDKit          3D

 60 65  0  0  0  0  0  0  0  0999 V2000
   24.8710    9.6160    7.7820 C   0  0  0  0  0  0  0  0  0  0  0  0
   25.4240   10.9650    7.3490 C   0  0  0  0  0  0  0  0  0  0  0  0
   26.5550   11.4100    8.2090 C   0  0  0  0  0  0  0  0  0  0  0  0
   27.6400   12.1960    7.8740 C   0  0  0  0  0  0  0  0  0  0  0  0
   28.3770   12.2600    9.0200 N   0  0  0  0  0  0  0  0  0  0  0  0
   29.6890   13.2780    9.3160 S   0  0  0  0  0  6  0  0  0  0  0  0
   29.7580   13.3600   10.7630 O   0  0  0  0  0  0  0  0  0  0  0  0
   30.7770   12.7210    8.5330 O   0  0  0  0  0  0  0  0  0  0  0  0
   29.2400   14.7420    8.7440 O   0  0  0  0  0  0  0  0  0  0  0  0
   28.5340   14.7980    7.5760 C   0  0  0  0  0  0  0  0  0  0  0  0
   27.1930   15.2580    7.5240 C   0  0  0  0  0  0  0  0  0  0  0  0
   26.4850   15.6280    8.7680 C   0  0  0  0  0  0  0  0  0  0  0  0
   25.2590   15.0000    9.1060 C   0  0  0  0  0  0  0  0  0  0  0  0
   24.5930   15.2870   10.3010 C   0  0  0  0  0  0  0  0  0  0  0  0
   25.1830   16.2010   11.1490 C   0  0  0  0  0  0  0  0  0  0  0  0
   26.3830   16.8420   10.8480 C   0  0  0  0  0  0  0  0  0  0  0  0
   27.0350   16.5770    9.6560 C   0  0  0  0  0  0  0  0  0  0  0  0
   26.7690   17.7560   11.9630 C   0  0  0  0  0  0  0  0  0  0  0  0
   25.7280   17.5040   12.9510 N   0  0  0  0  0  0  0  0  0  0  0  0
   25.5470   18.3090   14.1520 C   0  0  1  0  0  0  0  0  0  0  0  0
   26.3110   17.7520   15.3500 C   0  0  0  0  0  0  0  0  0  0  0  0
   26.0030   18.5910   16.5810 C   0  0  0  0  0  0  0  0  0  0  0  0
   26.3160   20.0490   16.3390 C   0  0  0  0  0  0  0  0  0  0  0  0
   26.7570   20.7810   17.2200 O   0  0  0  0  0  0  0  0  0  0  0  0
   26.0640   20.5310   15.0800 N   0  0  0  0  0  0  0  0  0  0  0  0
   25.9590   19.7740   13.9340 C   0  0  0  0  0  0  0  0  0  0  0  0
   26.1930   20.2770   12.8370 O   0  0  0  0  0  0  0  0  0  0  0  0
   24.7430   16.6550   12.4710 C   0  0  0  0  0  0  0  0  0  0  0  0
   23.7150   16.3120   13.0210 O   0  0  0  0  0  0  0  0  0  0  0  0
   26.4910   15.3450    6.2670 C   0  0  0  0  0  0  0  0  0  0  0  0
   27.0450   15.0030    5.0060 C   0  0  0  0  0  0  0  0  0  0  0  0
   28.3750   14.5580    5.0670 C   0  0  0  0  0  0  0  0  0  0  0  0
   29.2020   14.1640    4.0850 N   0  0  0  0  0  0  0  0  0  0  0  0
   30.3520   13.8440    4.7080 N   0  0  0  0  0  0  0  0  0  0  0  0
   30.3280   14.0210    6.0620 C   0  0  0  0  0  0  0  0  0  0  0  0
   29.0650   14.4740    6.3270 C   0  0  0  0  0  0  0  0  0  0  0  0
   27.7220   11.5920   10.0050 C   0  0  0  0  0  0  0  0  0  0  0  0
   26.6090   11.0600    9.5450 N   0  0  0  0  0  0  0  0  0  0  0  0
   24.8497    9.5640    8.8806 H   0  0  0  0  0  0  0  0  0  0  0  0
   23.8507    9.4948    7.3893 H   0  0  0  0  0  0  0  0  0  0  0  0
   25.5127    8.8135    7.3893 H   0  0  0  0  0  0  0  0  0  0  0  0
   25.7780   10.8862    6.3105 H   0  0  0  0  0  0  0  0  0  0  0  0
   24.6169   11.7067    7.4409 H   0  0  0  0  0  0  0  0  0  0  0  0
   27.8600   12.6642    6.9032 H   0  0  0  0  0  0  0  0  0  0  0  0
   24.8213   14.2689    8.4104 H   0  0  0  0  0  0  0  0  0  0  0  0
   23.6379   14.8039   10.5546 H   0  0  0  0  0  0  0  0  0  0  0  0
   27.9697   17.0994    9.4042 H   0  0  0  0  0  0  0  0  0  0  0  0
   27.7632   17.5021   12.3593 H   0  0  0  0  0  0  0  0  0  0  0  0
   26.8408   18.8112   11.6606 H   0  0  0  0  0  0  0  0  0  0  0  0
   24.4698   18.2662   14.3705 H   0  0  0  0  0  0  0  0  0  0  0  0
   26.0039   16.7111   15.5292 H   0  0  0  0  0  0  0  0  0  0  0  0
   27.3911   17.7848   15.1442 H   0  0  0  0  0  0  0  0  0  0  0  0
   24.9358   18.4889   16.8273 H   0  0  0  0  0  0  0  0  0  0  0  0
   26.6281   18.2333   17.4124 H   0  0  0  0  0  0  0  0  0  0  0  0
   25.9425   21.5492   14.9828 H   0  0  0  0  0  0  0  0  0  0  0  0
   25.4509   15.7023    6.2872 H   0  0  0  0  0  0  0  0  0  0  0  0
   26.4820   15.0798    4.0641 H   0  0  0  0  0  0  0  0  0  0  0  0
   31.1805   13.4949    4.2054 H   0  0  0  0  0  0  0  0  0  0  0  0
   31.1423   13.8398    6.7790 H   0  0  0  0  0  0  0  0  0  0  0  0
   28.0732   11.5072   11.0440 H   0  0  0  0  0  0  0  0  0  0  0  0
  1  2  1  0
  2  3  1  0
  3  4  2  0
  4  5  1  0
  5  6  1  0
  6  7  2  0
  6  8  2  0
  6  9  1  0
  9 10  1  0
 10 11  2  0
 11 12  1  0
 12 13  2  0
 13 14  1  0
 14 15  2  0
 15 16  1  0
 16 17  2  0
 16 18  1  0
 18 19  1  0
 19 20  1  0
 20 21  1  0
 21 22  1  0
 22 23  1  0
 23 24  2  0
 23 25  1  0
 25 26  1  0
 26 27  2  0
 19 28  1  0
 28 29  2  0
 11 30  1  0
 30 31  2  0
 31 32  1  0
 32 33  2  0
 33 34  1  0
 34 35  1  0
 35 36  2  0
  5 37  1  0
 37 38  2  0
 38  3  1  0
 36 10  1  0
 17 12  1  0
 26 20  1  0
 36 32  1  0
 28 15  1  0
  1 39  1  0
  1 40  1  0
  1 41  1  0
  2 42  1  0
  2 43  1  0
  4 44  1  0
 13 45  1  0
 14 46  1  0
 17 47  1  0
 18 48  1  0
 18 49  1  0
 20 50  1  1
 21 51  1  0
 21 52  1  0
 22 53  1  0
 22 54  1  0
 25 55  1  0
 30 56  1  0
 31 57  1  0
 34 58  1  0
 35 59  1  0
 37 60  1  0
M  END
>  <meeko>  (543) 
{"is_sidechain": [true], "free_energy": -12.16, "intermolecular_energy": 0.0, "internal_energy": -12.16, "cluster_size": 10, "cluster_id": 1, "rank_in_cluster": 1}

>  <_RMSD_MCS_to_ref>  (543) 
1.0938391587720555

$$$$
ligand
     RDKit          3D

 56 60  0  0  0  0  0  0  0  0999 V2000
   24.8540    9.4020    7.6050 C   0  0  0  0  0  0  0  0  0  0  0  0
   25.5230   10.7550    7.4270 C   0  0  0  0  0  0  0  0  0  0  0  0
   27.0050   10.6670    7.5340 C   0  0  0  0  0  0  0  0  0  0  0  0
   27.9420   11.6800    7.4770 C   0  0  0  0  0  0  0  0  0  0  0  0
   29.1380   11.0410    7.6430 N   0  0  0  0  0  0  0  0  0  0  0  0
   30.6630   11.7410    7.5360 S   0  0  0  0  0  6  0  0  0  0  0  0
   31.5710   10.7340    8.0650 O   0  0  0  0  0  0  0  0  0  0  0  0
   30.7540   12.2270    6.1680 O   0  0  0  0  0  0  0  0  0  0  0  0
   30.5930   13.1210    8.6520 C   0  0  0  0  0  0  0  0  0  0  0  0
   31.5700   13.2140    9.5730 N   0  0  0  0  0  0  0  0  0  0  0  0
   31.4530   14.2620   10.4010 C   0  0  0  0  0  0  0  0  0  0  0  0
   30.4290   15.1820   10.3180 C   0  0  0  0  0  0  0  0  0  0  0  0
   29.4910   14.9940    9.3160 C   0  0  0  0  0  0  0  0  0  0  0  0
   28.3910   15.8520    9.1690 N   0  0  0  0  0  0  0  0  0  0  0  0
   27.0240   15.5370    9.2730 C   0  0  0  0  0  0  0  0  0  0  0  0
   26.3740   14.6390    8.4070 C   0  0  0  0  0  0  0  0  0  0  0  0
   25.0170   14.2990    8.5760 C   0  0  0  0  0  0  0  0  0  0  0  0
   24.2750   14.8380    9.6250 C   0  0  0  0  0  0  0  0  0  0  0  0
   24.9310   15.7040   10.4770 C   0  0  0  0  0  0  0  0  0  0  0  0
   26.2740   16.0480   10.3240 C   0  0  0  0  0  0  0  0  0  0  0  0
   26.6810   16.9780   11.4180 C   0  0  0  0  0  0  0  0  0  0  0  0
   25.4310   17.2080   12.1320 N   0  0  0  0  0  0  0  0  0  0  0  0
   25.4130   17.8850   13.4240 C   0  0  1  0  0  0  0  0  0  0  0  0
   26.2680   17.2010   14.4910 C   0  0  0  0  0  0  0  0  0  0  0  0
   26.1260   17.9510   15.8060 C   0  0  0  0  0  0  0  0  0  0  0  0
   26.5030   19.4060   15.6510 C   0  0  0  0  0  0  0  0  0  0  0  0
   26.8720   20.0910   16.6010 O   0  0  0  0  0  0  0  0  0  0  0  0
   26.3340   19.9570   14.4050 N   0  0  0  0  0  0  0  0  0  0  0  0
   25.8060   19.3630   13.2830 C   0  0  0  0  0  0  0  0  0  0  0  0
   25.5800   20.0320   12.2740 O   0  0  0  0  0  0  0  0  0  0  0  0
   24.4100   16.3970   11.6600 C   0  0  0  0  0  0  0  0  0  0  0  0
   23.2940   16.2440   12.1140 O   0  0  0  0  0  0  0  0  0  0  0  0
   29.5460   13.9510    8.4770 N   0  0  0  0  0  0  0  0  0  0  0  0
   28.9160    9.7050    7.7570 C   0  0  0  0  0  0  0  0  0  0  0  0
   27.6260    9.4450    7.7060 N   0  0  0  0  0  0  0  0  0  0  0  0
   24.7464    9.1845    8.6779 H   0  0  0  0  0  0  0  0  0  0  0  0
   23.8606    9.4192    7.1330 H   0  0  0  0  0  0  0  0  0  0  0  0
   25.4708    8.6230    7.1330 H   0  0  0  0  0  0  0  0  0  0  0  0
   25.2623   11.1515    6.4346 H   0  0  0  0  0  0  0  0  0  0  0  0
   25.1649   11.4173    8.2290 H   0  0  0  0  0  0  0  0  0  0  0  0
   27.7655   12.7559    7.3312 H   0  0  0  0  0  0  0  0  0  0  0  0
   32.2120   14.3947   11.1861 H   0  0  0  0  0  0  0  0  0  0  0  0
   30.3600   16.0284   11.0171 H   0  0  0  0  0  0  0  0  0  0  0  0
   28.6119   16.8358    8.9586 H   0  0  0  0  0  0  0  0  0  0  0  0
   26.9395   14.1908    7.5767 H   0  0  0  0  0  0  0  0  0  0  0  0
   24.5388   13.6012    7.8729 H   0  0  0  0  0  0  0  0  0  0  0  0
   23.2141   14.5849    9.7679 H   0  0  0  0  0  0  0  0  0  0  0  0
   27.4316   16.5129   12.0740 H   0  0  0  0  0  0  0  0  0  0  0  0
   27.1477   17.9036   11.0500 H   0  0  0  0  0  0  0  0  0  0  0  0
   24.3726   17.8211   13.7755 H   0  0  0  0  0  0  0  0  0  0  0  0
   25.9304   16.1623   14.6221 H   0  0  0  0  0  0  0  0  0  0  0  0
   27.3221   17.2049   14.1767 H   0  0  0  0  0  0  0  0  0  0  0  0
   25.0816   17.8855   16.1450 H   0  0  0  0  0  0  0  0  0  0  0  0
   26.8032   17.4931   16.5420 H   0  0  0  0  0  0  0  0  0  0  0  0
   26.6401   20.9346   14.2976 H   0  0  0  0  0  0  0  0  0  0  0  0
   29.7040    8.9466    7.8754 H   0  0  0  0  0  0  0  0  0  0  0  0
  1  2  1  0
  2  3  1  0
  3  4  2  0
  4  5  1  0
  5  6  1  0
  6  7  2  0
  6  8  2  0
  6  9  1  0
  9 10  2  0
 10 11  1  0
 11 12  2  0
 12 13  1  0
 13 14  1  0
 14 15  1  0
 15 16  2  0
 16 17  1  0
 17 18  2  0
 18 19  1  0
 19 20  2  0
 20 21  1  0
 21 22  1  0
 22 23  1  0
 23 24  1  0
 24 25  1  0
 25 26  1  0
 26 27  2  0
 26 28  1  0
 28 29  1  0
 29 30  2  0
 22 31  1  0
 31 32  2  0
 13 33  2  0
  5 34  1  0
 34 35  2  0
 35  3  1  0
 33  9  1  0
 20 15  1  0
 29 23  1  0
 31 19  1  0
  1 36  1  0
  1 37  1  0
  1 38  1  0
  2 39  1  0
  2 40  1  0
  4 41  1  0
 11 42  1  0
 12 43  1  0
 14 44  1  0
 16 45  1  0
 17 46  1  0
 18 47  1  0
 21 48  1  0
 21 49  1  0
 23 50  1  1
 24 51  1  0
 24 52  1  0
 25 53  1  0
 25 54  1  0
 28 55  1  0
 34 56  1  0
M  END
>  <meeko>  (544) 
{"is_sidechain": [true], "free_energy": -12.15, "intermolecular_energy": 0.0, "internal_energy": -12.15, "cluster_size": 20, "cluster_id": 1, "rank_in_cluster": 1}

>  <_RMSD_MCS_to_ref>  (544) 
1.3401320415872793

$$$$
ligand
     RDKit          3D

 59 63  0  0  0  0  0  0  0  0999 V2000
   24.8540    9.4020    7.6050 C   0  0  0  0  0  0  0  0  0  0  0  0
   25.5230   10.7550    7.4270 C   0  0  0  0  0  0  0  0  0  0  0  0
   27.0060   10.6660    7.5230 C   0  0  0  0  0  0  0  0  0  0  0  0
   27.9440   11.6770    7.4440 C   0  0  0  0  0  0  0  0  0  0  0  0
   29.1410   11.0330    7.5770 N   0  0  0  0  0  0  0  0  0  0  0  0
   30.6360   11.7790    7.7650 S   0  0  0  0  0  6  0  0  0  0  0  0
   31.4190   10.9160    8.6260 O   0  0  0  0  0  0  0  0  0  0  0  0
   31.0580   12.1330    6.4230 O   0  0  0  0  0  0  0  0  0  0  0  0
   30.2710   13.2650    8.6480 C   0  0  0  0  0  0  0  0  0  0  0  0
   31.2880   14.1680    8.9350 C   0  0  0  0  0  0  0  0  0  0  0  0
   30.9360   15.3090    9.6250 C   0  0  0  0  0  0  0  0  0  0  0  0
   29.6730   15.5850   10.0210 N   0  0  0  0  0  0  0  0  0  0  0  0
   28.7050   14.6880    9.7360 C   0  0  0  0  0  0  0  0  0  0  0  0
   27.4410   15.0760   10.1830 N   0  0  0  0  0  0  0  0  0  0  0  0
   27.0380   16.3280   10.5830 C   0  0  0  0  0  0  0  0  0  0  0  0
   27.7500   17.3240   10.6460 O   0  0  0  0  0  0  0  0  0  0  0  0
   25.6180   16.4360   11.0220 C   0  0  0  0  0  0  0  0  0  0  0  0
   24.5490   15.9820   10.2270 C   0  0  0  0  0  0  0  0  0  0  0  0
   23.2160   16.0860   10.6740 C   0  0  0  0  0  0  0  0  0  0  0  0
   22.9270   16.6490   11.9160 C   0  0  0  0  0  0  0  0  0  0  0  0
   23.9910   17.1030   12.6720 C   0  0  0  0  0  0  0  0  0  0  0  0
   25.3170   17.0180   12.2460 C   0  0  0  0  0  0  0  0  0  0  0  0
   26.2150   17.6310   13.2710 C   0  0  0  0  0  0  0  0  0  0  0  0
   25.2930   17.9490   14.3560 N   0  0  0  0  0  0  0  0  0  0  0  0
   25.6510   18.8090   15.4770 C   0  0  1  0  0  0  0  0  0  0  0  0
   26.7560   18.2120   16.3440 C   0  0  0  0  0  0  0  0  0  0  0  0
   27.0070   19.1190   17.5390 C   0  0  0  0  0  0  0  0  0  0  0  0
   27.3360   20.5270   17.1010 C   0  0  0  0  0  0  0  0  0  0  0  0
   28.0940   21.2530   17.7400 O   0  0  0  0  0  0  0  0  0  0  0  0
   26.7170   20.9780   15.9620 N   0  0  0  0  0  0  0  0  0  0  0  0
   26.0790   20.2130   15.0130 C   0  0  0  0  0  0  0  0  0  0  0  0
   25.8760   20.6640   13.8880 O   0  0  0  0  0  0  0  0  0  0  0  0
   23.9720   17.7330   13.9960 C   0  0  0  0  0  0  0  0  0  0  0  0
   22.9670   17.9950   14.6280 O   0  0  0  0  0  0  0  0  0  0  0  0
   28.9630   13.5070    9.0650 C   0  0  0  0  0  0  0  0  0  0  0  0
   28.9150    9.7080    7.7710 C   0  0  0  0  0  0  0  0  0  0  0  0
   27.6240    9.4500    7.7340 N   0  0  0  0  0  0  0  0  0  0  0  0
   24.7464    9.1845    8.6779 H   0  0  0  0  0  0  0  0  0  0  0  0
   23.8606    9.4192    7.1330 H   0  0  0  0  0  0  0  0  0  0  0  0
   25.4708    8.6230    7.1330 H   0  0  0  0  0  0  0  0  0  0  0  0
   25.2554   11.1551    6.4379 H   0  0  0  0  0  0  0  0  0  0  0  0
   25.1713   11.4144    8.2341 H   0  0  0  0  0  0  0  0  0  0  0  0
   27.7673   12.7539    7.3057 H   0  0  0  0  0  0  0  0  0  0  0  0
   32.3269   13.9809    8.6257 H   0  0  0  0  0  0  0  0  0  0  0  0
   31.7265   16.0347    9.8666 H   0  0  0  0  0  0  0  0  0  0  0  0
   26.7250   14.3363   10.2173 H   0  0  0  0  0  0  0  0  0  0  0  0
   24.7568   15.5392    9.2417 H   0  0  0  0  0  0  0  0  0  0  0  0
   22.3971   15.7198   10.0373 H   0  0  0  0  0  0  0  0  0  0  0  0
   21.8921   16.7288   12.2802 H   0  0  0  0  0  0  0  0  0  0  0  0
   26.9851   16.9182   13.6009 H   0  0  0  0  0  0  0  0  0  0  0  0
   26.7694   18.5052   12.8989 H   0  0  0  0  0  0  0  0  0  0  0  0
   24.7373   18.8925   16.0838 H   0  0  0  0  0  0  0  0  0  0  0  0
   26.4480   17.2168   16.6971 H   0  0  0  0  0  0  0  0  0  0  0  0
   27.6786   18.1210   15.7519 H   0  0  0  0  0  0  0  0  0  0  0  0
   26.1046   19.1411   18.1677 H   0  0  0  0  0  0  0  0  0  0  0  0
   27.8644   18.7216   18.1020 H   0  0  0  0  0  0  0  0  0  0  0  0
   26.7316   21.9952   15.8009 H   0  0  0  0  0  0  0  0  0  0  0  0
   28.1610   12.7808    8.8663 H   0  0  0  0  0  0  0  0  0  0  0  0
   29.7003    8.9556    7.9359 H   0  0  0  0  0  0  0  0  0  0  0  0
  1  2  1  0
  2  3  1  0
  3  4  2  0
  4  5  1  0
  5  6  1  0
  6  7  2  0
  6  8  2  0
  6  9  1  0
  9 10  2  0
 10 11  1  0
 11 12  2  0
 12 13  1  0
 13 14  1  0
 14 15  1  0
 15 16  2  0
 15 17  1  0
 17 18  2  0
 18 19  1  0
 19 20  2  0
 20 21  1  0
 21 22  2  0
 22 23  1  0
 23 24  1  0
 24 25  1  0
 25 26  1  0
 26 27  1  0
 27 28  1  0
 28 29  2  0
 28 30  1  0
 30 31  1  0
 31 32  2  0
 24 33  1  0
 33 34  2  0
 13 35  2  0
  5 36  1  0
 36 37  2  0
 37  3  1  0
 35  9  1  0
 22 17  1  0
 31 25  1  0
 33 21  1  0
  1 38  1  0
  1 39  1  0
  1 40  1  0
  2 41  1  0
  2 42  1  0
  4 43  1  0
 10 44  1  0
 11 45  1  0
 14 46  1  0
 18 47  1  0
 19 48  1  0
 20 49  1  0
 23 50  1  0
 23 51  1  0
 25 52  1  1
 26 53  1  0
 26 54  1  0
 27 55  1  0
 27 56  1  0
 30 57  1  0
 35 58  1  0
 36 59  1  0
M  END
>  <meeko>  (545) 
{"is_sidechain": [true], "free_energy": -12.15, "intermolecular_energy": 0.0, "internal_energy": -12.15, "cluster_size": 13, "cluster_id": 1, "rank_in_cluster": 1}

>  <_RMSD_MCS_to_ref>  (545) 
1.1390527253429101

$$$$
ligand
     RDKit          3D

 60 65  0  0  0  0  0  0  0  0999 V2000
   24.8540    9.4020    7.6050 C   0  0  0  0  0  0  0  0  0  0  0  0
   25.5230   10.7550    7.4270 C   0  0  0  0  0  0  0  0  0  0  0  0
   27.0040   10.6700    7.5480 C   0  0  0  0  0  0  0  0  0  0  0  0
   27.9350   11.6900    7.5710 C   0  0  0  0  0  0  0  0  0  0  0  0
   29.1350   11.0460    7.6630 N   0  0  0  0  0  0  0  0  0  0  0  0
   30.6260   11.7780    7.9540 S   0  0  0  0  0  6  0  0  0  0  0  0
   31.2910   10.8940    8.8940 O   0  0  0  0  0  0  0  0  0  0  0  0
   31.1720   12.0330    6.6300 O   0  0  0  0  0  0  0  0  0  0  0  0
   30.2920   13.2020    8.6750 O   0  0  0  0  0  0  0  0  0  0  0  0
   29.3870   14.0690    8.0940 C   0  0  0  0  0  0  0  0  0  0  0  0
   28.1370   14.1740    8.7160 C   0  0  0  0  0  0  0  0  0  0  0  0
   27.1190   14.9860    8.1980 C   0  0  0  0  0  0  0  0  0  0  0  0
   25.8260   15.1070    8.8830 C   0  0  0  0  0  0  0  0  0  0  0  0
   24.6680   14.5280    8.3170 C   0  0  0  0  0  0  0  0  0  0  0  0
   23.4040   14.6220    8.9360 C   0  0  0  0  0  0  0  0  0  0  0  0
   23.2570   15.2980   10.1440 C   0  0  0  0  0  0  0  0  0  0  0  0
   24.3950   15.8580   10.6940 C   0  0  0  0  0  0  0  0  0  0  0  0
   25.6420   15.7740   10.0900 C   0  0  0  0  0  0  0  0  0  0  0  0
   26.5800   16.4840   10.9740 C   0  0  0  0  0  0  0  0  0  0  0  0
   27.7660   16.6550   10.7640 O   0  0  0  0  0  0  0  0  0  0  0  0
   25.8630   16.9140   12.0610 N   0  0  0  0  0  0  0  0  0  0  0  0
   26.4280   17.7940   13.0720 C   0  0  2  0  0  0  0  0  0  0  0  0
   25.9240   17.5330   14.4890 C   0  0  0  0  0  0  0  0  0  0  0  0
   26.6180   18.4880   15.4490 C   0  0  0  0  0  0  0  0  0  0  0  0
   26.4040   19.9280   15.0400 C   0  0  0  0  0  0  0  0  0  0  0  0
   26.4110   20.8480   15.8520 O   0  0  0  0  0  0  0  0  0  0  0  0
   26.2580   20.1720   13.6960 N   0  0  0  0  0  0  0  0  0  0  0  0
   26.1600   19.2500   12.6770 C   0  0  0  0  0  0  0  0  0  0  0  0
   25.9280   19.6160   11.5260 O   0  0  0  0  0  0  0  0  0  0  0  0
   24.5370   16.6180   11.9320 C   0  0  0  0  0  0  0  0  0  0  0  0
   23.6080   16.9210   12.6560 O   0  0  0  0  0  0  0  0  0  0  0  0
   27.3660   15.7060    7.0140 C   0  0  0  0  0  0  0  0  0  0  0  0
   28.6070   15.5990    6.3540 C   0  0  0  0  0  0  0  0  0  0  0  0
   29.1360   16.1670    5.1630 C   0  0  0  0  0  0  0  0  0  0  0  0
   30.4120   15.6830    5.0010 C   0  0  0  0  0  0  0  0  0  0  0  0
   30.6760   14.8380    6.0460 N   0  0  0  0  0  0  0  0  0  0  0  0
   29.5960   14.7790    6.9020 C   0  0  0  0  0  0  0  0  0  0  0  0
   28.9160    9.7110    7.7780 C   0  0  0  0  0  0  0  0  0  0  0  0
   27.6300    9.4460    7.6810 N   0  0  0  0  0  0  0  0  0  0  0  0
   24.7464    9.1845    8.6779 H   0  0  0  0  0  0  0  0  0  0  0  0
   23.8606    9.4192    7.1330 H   0  0  0  0  0  0  0  0  0  0  0  0
   25.4708    8.6230    7.1330 H   0  0  0  0  0  0  0  0  0  0  0  0
   25.2709   11.1465    6.4304 H   0  0  0  0  0  0  0  0  0  0  0  0
   25.1567   11.4202    8.2228 H   0  0  0  0  0  0  0  0  0  0  0  0
   27.7514   12.7736    7.5256 H   0  0  0  0  0  0  0  0  0  0  0  0
   27.9487   13.6031    9.6372 H   0  0  0  0  0  0  0  0  0  0  0  0
   24.7550   13.9867    7.3633 H   0  0  0  0  0  0  0  0  0  0  0  0
   22.5276   14.1575    8.4604 H   0  0  0  0  0  0  0  0  0  0  0  0
   22.2784   15.3828   10.6391 H   0  0  0  0  0  0  0  0  0  0  0  0
   27.5073   17.5835   13.1016 H   0  0  0  0  0  0  0  0  0  0  0  0
   24.8369   17.6961   14.5290 H   0  0  0  0  0  0  0  0  0  0  0  0
   26.1456   16.4943   14.7753 H   0  0  0  0  0  0  0  0  0  0  0  0
   26.2115   18.3382   16.4601 H   0  0  0  0  0  0  0  0  0  0  0  0
   27.6975   18.2776   15.4291 H   0  0  0  0  0  0  0  0  0  0  0  0
   26.2169   21.1626   13.4168 H   0  0  0  0  0  0  0  0  0  0  0  0
   26.5832   16.3584    6.5998 H   0  0  0  0  0  0  0  0  0  0  0  0
   28.6175   16.8676    4.4920 H   0  0  0  0  0  0  0  0  0  0  0  0
   31.0991   15.9303    4.1783 H   0  0  0  0  0  0  0  0  0  0  0  0
   31.5568   14.3197    6.1746 H   0  0  0  0  0  0  0  0  0  0  0  0
   29.7023    8.9570    7.9307 H   0  0  0  0  0  0  0  0  0  0  0  0
  1  2  1  0
  2  3  1  0
  3  4  2  0
  4  5  1  0
  5  6  1  0
  6  7  2  0
  6  8  2  0
  6  9  1  0
  9 10  1  0
 10 11  2  0
 11 12  1  0
 12 13  1  0
 13 14  2  0
 14 15  1  0
 15 16  2  0
 16 17  1  0
 17 18  2  0
 18 19  1  0
 19 20  2  0
 19 21  1  0
 21 22  1  0
 22 23  1  0
 23 24  1  0
 24 25  1  0
 25 26  2  0
 25 27  1  0
 27 28  1  0
 28 29  2  0
 21 30  1  0
 30 31  2  0
 12 32  2  0
 32 33  1  0
 33 34  1  0
 34 35  2  0
 35 36  1  0
 36 37  1  0
  5 38  1  0
 38 39  2  0
 39  3  1  0
 37 10  1  0
 18 13  1  0
 28 22  1  0
 37 33  2  0
 30 17  1  0
  1 40  1  0
  1 41  1  0
  1 42  1  0
  2 43  1  0
  2 44  1  0
  4 45  1  0
 11 46  1  0
 14 47  1  0
 15 48  1  0
 16 49  1  0
 22 50  1  1
 23 51  1  0
 23 52  1  0
 24 53  1  0
 24 54  1  0
 27 55  1  0
 32 56  1  0
 34 57  1  0
 35 58  1  0
 36 59  1  0
 38 60  1  0
M  END
>  <meeko>  (546) 
{"is_sidechain": [true], "free_energy": -12.15, "intermolecular_energy": 0.0, "internal_energy": -12.15, "cluster_size": 2, "cluster_id": 1, "rank_in_cluster": 1}

>  <_RMSD_MCS_to_ref>  (546) 
1.8972172018804567

$$$$
ligand
     RDKit          3D

 59 64  0  0  0  0  0  0  0  0999 V2000
   24.8710    9.6160    7.7820 C   0  0  0  0  0  0  0  0  0  0  0  0
   25.4240   10.9650    7.3490 C   0  0  0  0  0  0  0  0  0  0  0  0
   26.8350   10.8710    6.8860 C   0  0  0  0  0  0  0  0  0  0  0  0
   27.4790   11.6050    5.9080 C   0  0  0  0  0  0  0  0  0  0  0  0
   28.7470   11.0960    5.8910 N   0  0  0  0  0  0  0  0  0  0  0  0
   30.0090   11.6450    4.9200 S   0  0  0  0  0  6  0  0  0  0  0  0
   31.2240   11.0710    5.4700 O   0  0  0  0  0  0  0  0  0  0  0  0
   29.5800   11.3040    3.5730 O   0  0  0  0  0  0  0  0  0  0  0  0
   30.0780   13.2720    5.0080 O   0  0  0  0  0  0  0  0  0  0  0  0
   29.1620   14.0280    5.7130 C   0  0  0  0  0  0  0  0  0  0  0  0
   28.4830   14.9730    5.0370 C   0  0  0  0  0  0  0  0  0  0  0  0
   27.5540   15.7350    5.7160 N   0  0  0  0  0  0  0  0  0  0  0  0
   26.7160   16.7350    5.3110 C   0  0  0  0  0  0  0  0  0  0  0  0
   25.9790   17.1790    6.3080 N   0  0  0  0  0  0  0  0  0  0  0  0
   26.3750   16.4540    7.4140 C   0  0  0  0  0  0  0  0  0  0  0  0
   25.7910   16.6600    8.7260 C   0  0  0  0  0  0  0  0  0  0  0  0
   24.5220   16.1330    9.0580 C   0  0  0  0  0  0  0  0  0  0  0  0
   23.9670   16.3360   10.3270 C   0  0  0  0  0  0  0  0  0  0  0  0
   24.7150   17.0530   11.2400 C   0  0  0  0  0  0  0  0  0  0  0  0
   25.9740   17.5670   10.9430 C   0  0  0  0  0  0  0  0  0  0  0  0
   26.5270   17.3760    9.6880 C   0  0  0  0  0  0  0  0  0  0  0  0
   26.5180   18.2950   12.1240 C   0  0  0  0  0  0  0  0  0  0  0  0
   25.5060   18.0530   13.1440 N   0  0  0  0  0  0  0  0  0  0  0  0
   25.5240   18.7710   14.4140 C   0  0  2  0  0  0  0  0  0  0  0  0
   26.3540   20.0560   14.3830 C   0  0  0  0  0  0  0  0  0  0  0  0
   26.2530   20.7520   15.7320 C   0  0  0  0  0  0  0  0  0  0  0  0
   26.6930   19.8410   16.8540 C   0  0  0  0  0  0  0  0  0  0  0  0
   27.0880   20.2750   17.9320 O   0  0  0  0  0  0  0  0  0  0  0  0
   26.5490   18.4920   16.6460 N   0  0  0  0  0  0  0  0  0  0  0  0
   25.9830   17.8590   15.5620 C   0  0  0  0  0  0  0  0  0  0  0  0
   25.7770   16.6470   15.5900 O   0  0  0  0  0  0  0  0  0  0  0  0
   24.3920   17.4100   12.6250 C   0  0  0  0  0  0  0  0  0  0  0  0
   23.3280   17.1830   13.1660 O   0  0  0  0  0  0  0  0  0  0  0  0
   27.3320   15.5340    7.0540 C   0  0  0  0  0  0  0  0  0  0  0  0
   28.0700   14.4930    7.7010 C   0  0  0  0  0  0  0  0  0  0  0  0
   28.9490   13.7750    7.0550 N   0  0  0  0  0  0  0  0  0  0  0  0
   28.8500   10.1200    6.8280 C   0  0  0  0  0  0  0  0  0  0  0  0
   27.7010    9.9550    7.4520 N   0  0  0  0  0  0  0  0  0  0  0  0
   24.8497    9.5640    8.8806 H   0  0  0  0  0  0  0  0  0  0  0  0
   23.8507    9.4948    7.3893 H   0  0  0  0  0  0  0  0  0  0  0  0
   25.5127    8.8135    7.3893 H   0  0  0  0  0  0  0  0  0  0  0  0
   24.8062   11.3536    6.5261 H   0  0  0  0  0  0  0  0  0  0  0  0
   25.3982   11.6362    8.2201 H   0  0  0  0  0  0  0  0  0  0  0  0
   27.0659   12.4130    5.2863 H   0  0  0  0  0  0  0  0  0  0  0  0
   28.6649   15.1349    3.9643 H   0  0  0  0  0  0  0  0  0  0  0  0
   26.6635   17.1206    4.2821 H   0  0  0  0  0  0  0  0  0  0  0  0
   23.9623   15.5548    8.3080 H   0  0  0  0  0  0  0  0  0  0  0  0
   22.9742   15.9400   10.5867 H   0  0  0  0  0  0  0  0  0  0  0  0
   27.5229   17.7765    9.4476 H   0  0  0  0  0  0  0  0  0  0  0  0
   27.4929   17.8858   12.4276 H   0  0  0  0  0  0  0  0  0  0  0  0
   26.6984   19.3632   11.9330 H   0  0  0  0  0  0  0  0  0  0  0  0
   24.4837   19.0796   14.5941 H   0  0  0  0  0  0  0  0  0  0  0  0
   27.4055   19.8094   14.1745 H   0  0  0  0  0  0  0  0  0  0  0  0
   25.9728   20.7222   13.5950 H   0  0  0  0  0  0  0  0  0  0  0  0
   26.8947   21.6454   15.7232 H   0  0  0  0  0  0  0  0  0  0  0  0
   25.2022   21.0293   15.9018 H   0  0  0  0  0  0  0  0  0  0  0  0
   26.9080   17.8785   17.3914 H   0  0  0  0  0  0  0  0  0  0  0  0
   27.8928   14.2926    8.7680 H   0  0  0  0  0  0  0  0  0  0  0  0
   29.7650    9.5465    7.0375 H   0  0  0  0  0  0  0  0  0  0  0  0
  1  2  1  0
  2  3  1  0
  3  4  2  0
  4  5  1  0
  5  6  1  0
  6  7  2  0
  6  8  2  0
  6  9  1  0
  9 10  1  0
 10 11  2  0
 11 12  1  0
 12 13  1  0
 13 14  2  0
 14 15  1  0
 15 16  1  0
 16 17  2  0
 17 18  1  0
 18 19  2  0
 19 20  1  0
 20 21  2  0
 20 22  1  0
 22 23  1  0
 23 24  1  0
 24 25  1  0
 25 26  1  0
 26 27  1  0
 27 28  2  0
 27 29  1  0
 29 30  1  0
 30 31  2  0
 23 32  1  0
 32 33  2  0
 15 34  2  0
 34 35  1  0
 35 36  2  0
  5 37  1  0
 37 38  2  0
 38  3  1  0
 36 10  1  0
 34 12  1  0
 21 16  1  0
 30 24  1  0
 32 19  1  0
  1 39  1  0
  1 40  1  0
  1 41  1  0
  2 42  1  0
  2 43  1  0
  4 44  1  0
 11 45  1  0
 13 46  1  0
 17 47  1  0
 18 48  1  0
 21 49  1  0
 22 50  1  0
 22 51  1  0
 24 52  1  1
 25 53  1  0
 25 54  1  0
 26 55  1  0
 26 56  1  0
 29 57  1  0
 35 58  1  0
 37 59  1  0
M  END
>  <meeko>  (547) 
{"is_sidechain": [true], "free_energy": -12.15, "intermolecular_energy": 0.0, "internal_energy": -12.15, "cluster_size": 19, "cluster_id": 1, "rank_in_cluster": 1}

>  <_RMSD_MCS_to_ref>  (547) 
1.7832857904795623

$$$$
ligand
     RDKit          3D

 62 66  0  0  0  0  0  0  0  0999 V2000
   24.8710    9.6160    7.7820 C   0  0  0  0  0  0  0  0  0  0  0  0
   25.4240   10.9650    7.3490 C   0  0  0  0  0  0  0  0  0  0  0  0
   26.7070   10.8350    6.6080 C   0  0  0  0  0  0  0  0  0  0  0  0
   26.9510   11.0070    5.2600 C   0  0  0  0  0  0  0  0  0  0  0  0
   28.2860   10.7590    5.1250 N   0  0  0  0  0  0  0  0  0  0  0  0
   29.2080   11.0100    3.7430 S   0  0  0  0  0  6  0  0  0  0  0  0
   30.5690   10.6850    4.1240 O   0  0  0  0  0  0  0  0  0  0  0  0
   28.5210   10.3250    2.6660 O   0  0  0  0  0  0  0  0  0  0  0  0
   29.0950   12.7550    3.4640 C   0  0  0  0  0  0  0  0  0  0  0  0
   29.4430   13.2860    2.2210 C   0  0  0  0  0  0  0  0  0  0  0  0
   29.3460   14.6600    2.0190 C   0  0  0  0  0  0  0  0  0  0  0  0
   28.9080   15.4910    3.0550 C   0  0  0  0  0  0  0  0  0  0  0  0
   28.5620   14.9610    4.3040 C   0  0  0  0  0  0  0  0  0  0  0  0
   28.1260   15.8620    5.2970 N   0  0  0  0  0  0  0  0  0  0  0  0
   27.4390   15.5490    6.4630 C   0  0  0  0  0  0  0  0  0  0  0  0
   27.2110   14.4120    6.8540 O   0  0  0  0  0  0  0  0  0  0  0  0
   27.0550   16.7110    7.1160 N   0  0  0  0  0  0  0  0  0  0  0  0
   26.4450   16.8190    8.3830 C   0  0  0  0  0  0  0  0  0  0  0  0
   25.1590   16.2460    8.5240 C   0  0  0  0  0  0  0  0  0  0  0  0
   24.4650   16.3080    9.7370 C   0  0  0  0  0  0  0  0  0  0  0  0
   25.0850   16.9500   10.7880 C   0  0  0  0  0  0  0  0  0  0  0  0
   26.3450   17.5300   10.6710 C   0  0  0  0  0  0  0  0  0  0  0  0
   27.0360   17.4760    9.4710 C   0  0  0  0  0  0  0  0  0  0  0  0
   26.7290   18.1720   11.9600 C   0  0  0  0  0  0  0  0  0  0  0  0
   25.6300   17.8040   12.8430 N   0  0  0  0  0  0  0  0  0  0  0  0
   25.4860   18.4030   14.1650 C   0  0  2  0  0  0  0  0  0  0  0  0
   26.3260   19.6630   14.3660 C   0  0  0  0  0  0  0  0  0  0  0  0
   26.0540   20.2350   15.7480 C   0  0  0  0  0  0  0  0  0  0  0  0
   26.3310   19.2150   16.8270 C   0  0  0  0  0  0  0  0  0  0  0  0
   26.5950   19.5390   17.9820 O   0  0  0  0  0  0  0  0  0  0  0  0
   26.1940   17.8950   16.4780 N   0  0  0  0  0  0  0  0  0  0  0  0
   25.7780   17.3770   15.2720 C   0  0  0  0  0  0  0  0  0  0  0  0
   25.5640   16.1710   15.1560 O   0  0  0  0  0  0  0  0  0  0  0  0
   24.6050   17.1710   12.1550 C   0  0  0  0  0  0  0  0  0  0  0  0
   23.5010   16.8580   12.5570 O   0  0  0  0  0  0  0  0  0  0  0  0
   28.6380   13.5810    4.4980 C   0  0  0  0  0  0  0  0  0  0  0  0
   28.8140   10.4940    6.3490 C   0  0  0  0  0  0  0  0  0  0  0  0
   27.8760   10.5180    7.2730 N   0  0  0  0  0  0  0  0  0  0  0  0
   24.8497    9.5640    8.8806 H   0  0  0  0  0  0  0  0  0  0  0  0
   23.8507    9.4948    7.3893 H   0  0  0  0  0  0  0  0  0  0  0  0
   25.5127    8.8135    7.3893 H   0  0  0  0  0  0  0  0  0  0  0  0
   24.6870   11.4573    6.6975 H   0  0  0  0  0  0  0  0  0  0  0  0
   25.6163   11.5577    8.2555 H   0  0  0  0  0  0  0  0  0  0  0  0
   26.2325   11.2815    4.4736 H   0  0  0  0  0  0  0  0  0  0  0  0
   29.7895   12.6271    1.4112 H   0  0  0  0  0  0  0  0  0  0  0  0
   29.6141   15.0924    1.0437 H   0  0  0  0  0  0  0  0  0  0  0  0
   28.8343   16.5755    2.8864 H   0  0  0  0  0  0  0  0  0  0  0  0
   28.3395   16.8575    5.1414 H   0  0  0  0  0  0  0  0  0  0  0  0
   27.2358   17.5950    6.6193 H   0  0  0  0  0  0  0  0  0  0  0  0
   24.6959   15.7419    7.6629 H   0  0  0  0  0  0  0  0  0  0  0  0
   23.4653   15.8627    9.8479 H   0  0  0  0  0  0  0  0  0  0  0  0
   28.0288   17.9396    9.3742 H   0  0  0  0  0  0  0  0  0  0  0  0
   27.6855   17.7751   12.3310 H   0  0  0  0  0  0  0  0  0  0  0  0
   26.8773   19.2589   11.8784 H   0  0  0  0  0  0  0  0  0  0  0  0
   24.4350   18.7204   14.2336 H   0  0  0  0  0  0  0  0  0  0  0  0
   27.3930   19.4111   14.2764 H   0  0  0  0  0  0  0  0  0  0  0  0
   26.0609   20.4077   13.6010 H   0  0  0  0  0  0  0  0  0  0  0  0
   26.7009   21.1103   15.9075 H   0  0  0  0  0  0  0  0  0  0  0  0
   24.9932   20.5206   15.8035 H   0  0  0  0  0  0  0  0  0  0  0  0
   26.4314   17.2076   17.2074 H   0  0  0  0  0  0  0  0  0  0  0  0
   28.3393   13.1430    5.4618 H   0  0  0  0  0  0  0  0  0  0  0  0
   29.8773   10.2880    6.5412 H   0  0  0  0  0  0  0  0  0  0  0  0
  1  2  1  0
  2  3  1  0
  3  4  2  0
  4  5  1  0
  5  6  1  0
  6  7  2  0
  6  8  2  0
  6  9  1  0
  9 10  2  0
 10 11  1  0
 11 12  2  0
 12 13  1  0
 13 14  1  0
 14 15  1  0
 15 16  2  0
 15 17  1  0
 17 18  1  0
 18 19  2  0
 19 20  1  0
 20 21  2  0
 21 22  1  0
 22 23  2  0
 22 24  1  0
 24 25  1  0
 25 26  1  0
 26 27  1  0
 27 28  1  0
 28 29  1  0
 29 30  2  0
 29 31  1  0
 31 32  1  0
 32 33  2  0
 25 34  1  0
 34 35  2  0
 13 36  2  0
  5 37  1  0
 37 38  2  0
 38  3  1  0
 36  9  1  0
 23 18  1  0
 32 26  1  0
 34 21  1  0
  1 39  1  0
  1 40  1  0
  1 41  1  0
  2 42  1  0
  2 43  1  0
  4 44  1  0
 10 45  1  0
 11 46  1  0
 12 47  1  0
 14 48  1  0
 17 49  1  0
 19 50  1  0
 20 51  1  0
 23 52  1  0
 24 53  1  0
 24 54  1  0
 26 55  1  1
 27 56  1  0
 27 57  1  0
 28 58  1  0
 28 59  1  0
 31 60  1  0
 36 61  1  0
 37 62  1  0
M  END
>  <meeko>  (548) 
{"is_sidechain": [true], "free_energy": -12.15, "intermolecular_energy": 0.0, "internal_energy": -12.15, "cluster_size": 20, "cluster_id": 1, "rank_in_cluster": 1}

>  <_RMSD_MCS_to_ref>  (548) 
1.9775874471464245

$$$$
ligand
     RDKit          3D

 62 67  0  0  0  0  0  0  0  0999 V2000
   24.8710    9.6160    7.7820 C   0  0  0  0  0  0  0  0  0  0  0  0
   25.4240   10.9650    7.3490 C   0  0  0  0  0  0  0  0  0  0  0  0
   26.8170   11.1780    7.8250 C   0  0  0  0  0  0  0  0  0  0  0  0
   27.3080   12.1630    8.6600 C   0  0  0  0  0  0  0  0  0  0  0  0
   28.6430   11.8870    8.7490 N   0  0  0  0  0  0  0  0  0  0  0  0
   29.7830   12.8120    9.5780 S   0  0  0  0  0  6  0  0  0  0  0  0
   31.0860   12.3220    9.1560 O   0  0  0  0  0  0  0  0  0  0  0  0
   29.3800   12.7000   10.9680 O   0  0  0  0  0  0  0  0  0  0  0  0
   29.6310   14.3740    9.1500 O   0  0  0  0  0  0  0  0  0  0  0  0
   29.0920   14.6430    7.9220 C   0  0  0  0  0  0  0  0  0  0  0  0
   29.8430   14.2840    6.8600 N   0  0  0  0  0  0  0  0  0  0  0  0
   29.3330   14.4690    5.6320 C   0  0  0  0  0  0  0  0  0  0  0  0
   30.0950   14.1290    4.5230 C   0  0  0  0  0  0  0  0  0  0  0  0
   29.6110   14.3020    3.2230 C   0  0  0  0  0  0  0  0  0  0  0  0
   28.3380   14.8260    3.0220 C   0  0  0  0  0  0  0  0  0  0  0  0
   27.5540   15.1760    4.1200 C   0  0  0  0  0  0  0  0  0  0  0  0
   28.0460   15.0010    5.4260 C   0  0  0  0  0  0  0  0  0  0  0  0
   27.2880   15.3480    6.5550 C   0  0  0  0  0  0  0  0  0  0  0  0
   27.8040   15.1720    7.8440 C   0  0  0  0  0  0  0  0  0  0  0  0
   27.0230   15.5480    9.0280 C   0  0  0  0  0  0  0  0  0  0  0  0
   25.8440   14.8360    9.3640 C   0  0  0  0  0  0  0  0  0  0  0  0
   25.0860   15.1710   10.4900 C   0  0  0  0  0  0  0  0  0  0  0  0
   25.5310   16.2260   11.2610 C   0  0  0  0  0  0  0  0  0  0  0  0
   26.6830   16.9470   10.9590 C   0  0  0  0  0  0  0  0  0  0  0  0
   27.4370   16.6220    9.8440 C   0  0  0  0  0  0  0  0  0  0  0  0
   26.9030   18.0170   11.9780 C   0  0  0  0  0  0  0  0  0  0  0  0
   25.7520   17.8510   12.8590 N   0  0  0  0  0  0  0  0  0  0  0  0
   25.6010   18.5350   14.1400 C   0  0  1  0  0  0  0  0  0  0  0  0
   26.5560   17.9520   15.1840 C   0  0  0  0  0  0  0  0  0  0  0  0
   26.2900   18.5920   16.5370 C   0  0  0  0  0  0  0  0  0  0  0  0
   26.4020   20.0950   16.4640 C   0  0  0  0  0  0  0  0  0  0  0  0
   26.7800   20.7740   17.4140 O   0  0  0  0  0  0  0  0  0  0  0  0
   26.0230   20.6820   15.2830 N   0  0  0  0  0  0  0  0  0  0  0  0
   25.7770   20.0610   14.0790 C   0  0  0  0  0  0  0  0  0  0  0  0
   25.6760   20.7300   13.0540 O   0  0  0  0  0  0  0  0  0  0  0  0
   24.9550   16.7800   12.4910 C   0  0  0  0  0  0  0  0  0  0  0  0
   23.9820   16.3370   13.0700 O   0  0  0  0  0  0  0  0  0  0  0  0
   28.9280   10.7980    7.9910 C   0  0  0  0  0  0  0  0  0  0  0  0
   27.8330   10.3330    7.4220 N   0  0  0  0  0  0  0  0  0  0  0  0
   24.8497    9.5640    8.8806 H   0  0  0  0  0  0  0  0  0  0  0  0
   23.8507    9.4948    7.3893 H   0  0  0  0  0  0  0  0  0  0  0  0
   25.5127    8.8135    7.3893 H   0  0  0  0  0  0  0  0  0  0  0  0
   25.4129   11.0167    6.2503 H   0  0  0  0  0  0  0  0  0  0  0  0
   24.7913   11.7482    7.7920 H   0  0  0  0  0  0  0  0  0  0  0  0
   26.7523   12.9808    9.1420 H   0  0  0  0  0  0  0  0  0  0  0  0
   31.1029   13.7139    4.6703 H   0  0  0  0  0  0  0  0  0  0  0  0
   30.2353   14.0244    2.3609 H   0  0  0  0  0  0  0  0  0  0  0  0
   27.9520   14.9635    2.0012 H   0  0  0  0  0  0  0  0  0  0  0  0
   26.5470   15.5905    3.9646 H   0  0  0  0  0  0  0  0  0  0  0  0
   26.2775   15.7628    6.4254 H   0  0  0  0  0  0  0  0  0  0  0  0
   25.5185   14.0019    8.7249 H   0  0  0  0  0  0  0  0  0  0  0  0
   24.1724   14.6166   10.7508 H   0  0  0  0  0  0  0  0  0  0  0  0
   28.3449   17.1924    9.5982 H   0  0  0  0  0  0  0  0  0  0  0  0
   27.8463   17.8609   12.5218 H   0  0  0  0  0  0  0  0  0  0  0  0
   26.9846   19.0254   11.5462 H   0  0  0  0  0  0  0  0  0  0  0  0
   24.5554   18.3572   14.4317 H   0  0  0  0  0  0  0  0  0  0  0  0
   26.3993   16.8656   15.2564 H   0  0  0  0  0  0  0  0  0  0  0  0
   27.5938   18.1566   14.8823 H   0  0  0  0  0  0  0  0  0  0  0  0
   25.2755   18.3239   16.8670 H   0  0  0  0  0  0  0  0  0  0  0  0
   27.0416   18.2220   17.2499 H   0  0  0  0  0  0  0  0  0  0  0  0
   25.9094   21.7056   15.2991 H   0  0  0  0  0  0  0  0  0  0  0  0
   29.9314   10.3642    7.8685 H   0  0  0  0  0  0  0  0  0  0  0  0
  1  2  1  0
  2  3  1  0
  3  4  2  0
  4  5  1  0
  5  6  1  0
  6  7  2  0
  6  8  2  0
  6  9  1  0
  9 10  1  0
 10 11  2  0
 11 12  1  0
 12 13  2  0
 13 14  1  0
 14 15  2  0
 15 16  1  0
 16 17  2  0
 17 18  1  0
 18 19  2  0
 19 20  1  0
 20 21  2  0
 21 22  1  0
 22 23  2  0
 23 24  1  0
 24 25  2  0
 24 26  1  0
 26 27  1  0
 27 28  1  0
 28 29  1  0
 29 30  1  0
 30 31  1  0
 31 32  2  0
 31 33  1  0
 33 34  1  0
 34 35  2  0
 27 36  1  0
 36 37  2  0
  5 38  1  0
 38 39  2  0
 39  3  1  0
 19 10  1  0
 25 20  1  0
 34 28  1  0
 17 12  1  0
 36 23  1  0
  1 40  1  0
  1 41  1  0
  1 42  1  0
  2 43  1  0
  2 44  1  0
  4 45  1  0
 13 46  1  0
 14 47  1  0
 15 48  1  0
 16 49  1  0
 18 50  1  0
 21 51  1  0
 22 52  1  0
 25 53  1  0
 26 54  1  0
 26 55  1  0
 28 56  1  1
 29 57  1  0
 29 58  1  0
 30 59  1  0
 30 60  1  0
 33 61  1  0
 38 62  1  0
M  END
>  <meeko>  (549) 
{"is_sidechain": [true], "free_energy": -12.15, "intermolecular_energy": 0.0, "internal_energy": -12.15, "cluster_size": 12, "cluster_id": 1, "rank_in_cluster": 1}

>  <_RMSD_MCS_to_ref>  (549) 
1.3291875436956928

$$$$
ligand
     RDKit          3D

 61 66  0  0  0  0  0  0  0  0999 V2000
   24.8710    9.6160    7.7820 C   0  0  0  0  0  0  0  0  0  0  0  0
   25.4240   10.9650    7.3490 C   0  0  0  0  0  0  0  0  0  0  0  0
   24.9560   11.3560    5.9920 C   0  0  0  0  0  0  0  0  0  0  0  0
   24.1340   12.4040    5.6310 C   0  0  0  0  0  0  0  0  0  0  0  0
   24.0340   12.3020    4.2720 N   0  0  0  0  0  0  0  0  0  0  0  0
   23.4240   13.4820    3.2260 S   0  0  0  0  0  6  0  0  0  0  0  0
   23.6610   12.9400    1.9010 O   0  0  0  0  0  0  0  0  0  0  0  0
   22.0750   13.7570    3.6900 O   0  0  0  0  0  0  0  0  0  0  0  0
   24.3290   14.8360    3.3930 O   0  0  0  0  0  0  0  0  0  0  0  0
   25.2650   14.8800    4.4010 C   0  0  0  0  0  0  0  0  0  0  0  0
   24.8140   15.0860    5.7070 C   0  0  0  0  0  0  0  0  0  0  0  0
   25.7090   15.2060    6.7790 C   0  0  0  0  0  0  0  0  0  0  0  0
   25.2170   15.5130    8.1320 C   0  0  0  0  0  0  0  0  0  0  0  0
   24.0330   14.9120    8.6260 C   0  0  0  0  0  0  0  0  0  0  0  0
   23.5530   15.1900    9.9110 C   0  0  0  0  0  0  0  0  0  0  0  0
   24.2820   16.0720   10.6830 C   0  0  0  0  0  0  0  0  0  0  0  0
   25.4470   16.6810   10.2280 C   0  0  0  0  0  0  0  0  0  0  0  0
   25.9240   16.4140    8.9560 C   0  0  0  0  0  0  0  0  0  0  0  0
   25.9890   17.5920   11.2770 C   0  0  0  0  0  0  0  0  0  0  0  0
   25.0910   17.3580   12.3990 N   0  0  0  0  0  0  0  0  0  0  0  0
   25.1190   18.2110   13.5820 C   0  0  2  0  0  0  0  0  0  0  0  0
   25.7050   19.5990   13.3280 C   0  0  0  0  0  0  0  0  0  0  0  0
   25.6270   20.4200   14.6050 C   0  0  0  0  0  0  0  0  0  0  0  0
   26.3350   19.7270   15.7450 C   0  0  0  0  0  0  0  0  0  0  0  0
   26.7660   20.3410   16.7180 O   0  0  0  0  0  0  0  0  0  0  0  0
   26.4040   18.3580   15.6880 N   0  0  0  0  0  0  0  0  0  0  0  0
   25.8470   17.5220   14.7470 C   0  0  0  0  0  0  0  0  0  0  0  0
   25.8590   16.3030   14.9150 O   0  0  0  0  0  0  0  0  0  0  0  0
   24.0220   16.5450   12.0460 C   0  0  0  0  0  0  0  0  0  0  0  0
   23.0350   16.2670   12.6980 O   0  0  0  0  0  0  0  0  0  0  0  0
   27.0890   15.0600    6.5310 C   0  0  0  0  0  0  0  0  0  0  0  0
   27.5600   14.8150    5.2240 C   0  0  0  0  0  0  0  0  0  0  0  0
   28.8510   14.6350    4.6570 C   0  0  0  0  0  0  0  0  0  0  0  0
   28.6930   14.4560    3.3030 C   0  0  0  0  0  0  0  0  0  0  0  0
   27.3540   14.5150    3.0230 N   0  0  0  0  0  0  0  0  0  0  0  0
   26.6370   14.7330    4.1810 C   0  0  0  0  0  0  0  0  0  0  0  0
   24.7980   11.2590    3.8490 C   0  0  0  0  0  0  0  0  0  0  0  0
   25.3660   10.6560    4.8730 N   0  0  0  0  0  0  0  0  0  0  0  0
   24.8497    9.5640    8.8806 H   0  0  0  0  0  0  0  0  0  0  0  0
   23.8507    9.4948    7.3893 H   0  0  0  0  0  0  0  0  0  0  0  0
   25.5127    8.8135    7.3893 H   0  0  0  0  0  0  0  0  0  0  0  0
   25.0979   11.7292    8.0698 H   0  0  0  0  0  0  0  0  0  0  0  0
   26.5207   10.8856    7.3176 H   0  0  0  0  0  0  0  0  0  0  0  0
   23.6656   13.1517    6.2880 H   0  0  0  0  0  0  0  0  0  0  0  0
   23.7330   15.1555    5.8982 H   0  0  0  0  0  0  0  0  0  0  0  0
   23.4783   14.2109    7.9851 H   0  0  0  0  0  0  0  0  0  0  0  0
   22.6316   14.7242   10.2906 H   0  0  0  0  0  0  0  0  0  0  0  0
   26.8424   16.8981    8.5925 H   0  0  0  0  0  0  0  0  0  0  0  0
   27.0247   17.3270   11.5359 H   0  0  0  0  0  0  0  0  0  0  0  0
   26.0291   18.6452   10.9622 H   0  0  0  0  0  0  0  0  0  0  0  0
   24.0656   18.3677   13.8575 H   0  0  0  0  0  0  0  0  0  0  0  0
   26.7557   19.5027   13.0169 H   0  0  0  0  0  0  0  0  0  0  0  0
   25.1332   20.1000   12.5330 H   0  0  0  0  0  0  0  0  0  0  0  0
   26.0988   21.3985   14.4317 H   0  0  0  0  0  0  0  0  0  0  0  0
   24.5679   20.5421   14.8760 H   0  0  0  0  0  0  0  0  0  0  0  0
   26.9374   17.9001   16.4408 H   0  0  0  0  0  0  0  0  0  0  0  0
   27.8042   15.1377    7.3631 H   0  0  0  0  0  0  0  0  0  0  0  0
   29.8056   14.6383    5.2036 H   0  0  0  0  0  0  0  0  0  0  0  0
   29.5000   14.2940    2.5733 H   0  0  0  0  0  0  0  0  0  0  0  0
   26.9422   14.4117    2.0846 H   0  0  0  0  0  0  0  0  0  0  0  0
   24.9239   10.9606    2.7978 H   0  0  0  0  0  0  0  0  0  0  0  0
  1  2  1  0
  2  3  1  0
  3  4  2  0
  4  5  1  0
  5  6  1  0
  6  7  2  0
  6  8  2  0
  6  9  1  0
  9 10  1  0
 10 11  2  0
 11 12  1  0
 12 13  1  0
 13 14  2  0
 14 15  1  0
 15 16  2  0
 16 17  1  0
 17 18  2  0
 17 19  1  0
 19 20  1  0
 20 21  1  0
 21 22  1  0
 22 23  1  0
 23 24  1  0
 24 25  2  0
 24 26  1  0
 26 27  1  0
 27 28  2  0
 20 29  1  0
 29 30  2  0
 12 31  2  0
 31 32  1  0
 32 33  1  0
 33 34  2  0
 34 35  1  0
 35 36  1  0
  5 37  1  0
 37 38  2  0
 38  3  1  0
 36 10  1  0
 18 13  1  0
 27 21  1  0
 36 32  2  0
 29 16  1  0
  1 39  1  0
  1 40  1  0
  1 41  1  0
  2 42  1  0
  2 43  1  0
  4 44  1  0
 11 45  1  0
 14 46  1  0
 15 47  1  0
 18 48  1  0
 19 49  1  0
 19 50  1  0
 21 51  1  1
 22 52  1  0
 22 53  1  0
 23 54  1  0
 23 55  1  0
 26 56  1  0
 31 57  1  0
 33 58  1  0
 34 59  1  0
 35 60  1  0
 37 61  1  0
M  END
>  <meeko>  (550) 
{"is_sidechain": [true], "free_energy": -12.14, "intermolecular_energy": 0.0, "internal_energy": -12.14, "cluster_size": 8, "cluster_id": 2, "rank_in_cluster": 1}

>  <_RMSD_MCS_to_ref>  (550) 
1.7564934416405649

$$$$
ligand
     RDKit          3D

 62 67  0  0  0  0  0  0  0  0999 V2000
   24.8710    9.6160    7.7820 C   0  0  0  0  0  0  0  0  0  0  0  0
   25.4240   10.9650    7.3490 C   0  0  0  0  0  0  0  0  0  0  0  0
   25.6710   11.0280    5.8830 C   0  0  0  0  0  0  0  0  0  0  0  0
   24.9070   11.6200    4.8980 C   0  0  0  0  0  0  0  0  0  0  0  0
   25.5820   11.3480    3.7410 N   0  0  0  0  0  0  0  0  0  0  0  0
   25.2660   12.0410    2.2350 S   0  0  0  0  0  6  0  0  0  0  0  0
   26.3110   11.5280    1.3690 O   0  0  0  0  0  0  0  0  0  0  0  0
   23.8640   11.7600    1.9940 O   0  0  0  0  0  0  0  0  0  0  0  0
   25.4780   13.6500    2.4400 O   0  0  0  0  0  0  0  0  0  0  0  0
   26.4660   14.0940    3.2860 C   0  0  0  0  0  0  0  0  0  0  0  0
   27.7960   14.1510    2.8670 C   0  0  0  0  0  0  0  0  0  0  0  0
   28.7810   14.5830    3.7520 C   0  0  0  0  0  0  0  0  0  0  0  0
   28.4400   14.9480    5.0550 C   0  0  0  0  0  0  0  0  0  0  0  0
   27.1090   14.8760    5.4990 C   0  0  0  0  0  0  0  0  0  0  0  0
   26.7540   15.2290    6.8100 C   0  0  0  0  0  0  0  0  0  0  0  0
   25.4250   15.1410    7.2210 C   0  0  0  0  0  0  0  0  0  0  0  0
   24.9780   15.4980    8.5860 C   0  0  0  0  0  0  0  0  0  0  0  0
   23.7550   15.0130    9.1210 C   0  0  0  0  0  0  0  0  0  0  0  0
   23.3250   15.3530   10.4100 C   0  0  0  0  0  0  0  0  0  0  0  0
   24.1420   16.1770   11.1540 C   0  0  0  0  0  0  0  0  0  0  0  0
   25.3490   16.6680   10.6710 C   0  0  0  0  0  0  0  0  0  0  0  0
   25.7770   16.3370    9.3950 C   0  0  0  0  0  0  0  0  0  0  0  0
   25.9910   17.5400   11.6950 C   0  0  0  0  0  0  0  0  0  0  0  0
   25.0950   17.4070   12.8360 N   0  0  0  0  0  0  0  0  0  0  0  0
   25.2250   18.2660   14.0080 C   0  0  2  0  0  0  0  0  0  0  0  0
   25.9100   19.6010   13.7180 C   0  0  0  0  0  0  0  0  0  0  0  0
   25.9370   20.4390   14.9860 C   0  0  0  0  0  0  0  0  0  0  0  0
   26.6230   19.7040   16.1140 C   0  0  0  0  0  0  0  0  0  0  0  0
   27.1290   20.2920   17.0650 O   0  0  0  0  0  0  0  0  0  0  0  0
   26.5820   18.3330   16.0720 N   0  0  0  0  0  0  0  0  0  0  0  0
   25.9330   17.5350   15.1580 C   0  0  0  0  0  0  0  0  0  0  0  0
   25.8540   16.3210   15.3420 O   0  0  0  0  0  0  0  0  0  0  0  0
   23.9500   16.6910   12.5140 C   0  0  0  0  0  0  0  0  0  0  0  0
   22.9540   16.5140   13.1860 O   0  0  0  0  0  0  0  0  0  0  0  0
   24.4530   14.7040    6.3840 N   0  0  0  0  0  0  0  0  0  0  0  0
   24.8090   14.3710    5.1200 C   0  0  0  0  0  0  0  0  0  0  0  0
   26.1110   14.4360    4.6110 C   0  0  0  0  0  0  0  0  0  0  0  0
   26.7350   10.6990    4.0430 C   0  0  0  0  0  0  0  0  0  0  0  0
   26.8080   10.4660    5.3360 N   0  0  0  0  0  0  0  0  0  0  0  0
   24.8497    9.5640    8.8806 H   0  0  0  0  0  0  0  0  0  0  0  0
   23.8507    9.4948    7.3893 H   0  0  0  0  0  0  0  0  0  0  0  0
   25.5127    8.8135    7.3893 H   0  0  0  0  0  0  0  0  0  0  0  0
   24.7003   11.7478    7.6201 H   0  0  0  0  0  0  0  0  0  0  0  0
   26.3866   11.1146    7.8599 H   0  0  0  0  0  0  0  0  0  0  0  0
   23.9691   12.1823    5.0168 H   0  0  0  0  0  0  0  0  0  0  0  0
   28.0653   13.8560    1.8421 H   0  0  0  0  0  0  0  0  0  0  0  0
   29.8294   14.6365    3.4233 H   0  0  0  0  0  0  0  0  0  0  0  0
   29.2237   15.2967    5.7436 H   0  0  0  0  0  0  0  0  0  0  0  0
   27.5251   15.5754    7.5138 H   0  0  0  0  0  0  0  0  0  0  0  0
   23.1276   14.3515    8.5055 H   0  0  0  0  0  0  0  0  0  0  0  0
   22.3728   14.9772   10.8127 H   0  0  0  0  0  0  0  0  0  0  0  0
   26.7332   16.7252    9.0142 H   0  0  0  0  0  0  0  0  0  0  0  0
   27.0023   17.1842   11.9412 H   0  0  0  0  0  0  0  0  0  0  0  0
   26.1225   18.5801   11.3621 H   0  0  0  0  0  0  0  0  0  0  0  0
   24.1961   18.5060   14.3144 H   0  0  0  0  0  0  0  0  0  0  0  0
   26.9396   19.4189   13.3762 H   0  0  0  0  0  0  0  0  0  0  0  0
   25.3545   20.1371   12.9344 H   0  0  0  0  0  0  0  0  0  0  0  0
   26.4793   21.3749   14.7858 H   0  0  0  0  0  0  0  0  0  0  0  0
   24.8998   20.6476   15.2870 H   0  0  0  0  0  0  0  0  0  0  0  0
   27.0998   17.8418   16.8146 H   0  0  0  0  0  0  0  0  0  0  0  0
   24.0149   14.0234    4.4428 H   0  0  0  0  0  0  0  0  0  0  0  0
   27.5014   10.4084    3.3094 H   0  0  0  0  0  0  0  0  0  0  0  0
  1  2  1  0
  2  3  1  0
  3  4  2  0
  4  5  1  0
  5  6  1  0
  6  7  2  0
  6  8  2  0
  6  9  1  0
  9 10  1  0
 10 11  2  0
 11 12  1  0
 12 13  2  0
 13 14  1  0
 14 15  2  0
 15 16  1  0
 16 17  1  0
 17 18  2  0
 18 19  1  0
 19 20  2  0
 20 21  1  0
 21 22  2  0
 21 23  1  0
 23 24  1  0
 24 25  1  0
 25 26  1  0
 26 27  1  0
 27 28  1  0
 28 29  2  0
 28 30  1  0
 30 31  1  0
 31 32  2  0
 24 33  1  0
 33 34  2  0
 16 35  2  0
 35 36  1  0
 36 37  2  0
  5 38  1  0
 38 39  2  0
 39  3  1  0
 37 10  1  0
 37 14  1  0
 22 17  1  0
 31 25  1  0
 33 20  1  0
  1 40  1  0
  1 41  1  0
  1 42  1  0
  2 43  1  0
  2 44  1  0
  4 45  1  0
 11 46  1  0
 12 47  1  0
 13 48  1  0
 15 49  1  0
 18 50  1  0
 19 51  1  0
 22 52  1  0
 23 53  1  0
 23 54  1  0
 25 55  1  1
 26 56  1  0
 26 57  1  0
 27 58  1  0
 27 59  1  0
 30 60  1  0
 36 61  1  0
 38 62  1  0
M  END
>  <meeko>  (551) 
{"is_sidechain": [true], "free_energy": -12.14, "intermolecular_energy": 0.0, "internal_energy": -12.14, "cluster_size": 5, "cluster_id": 2, "rank_in_cluster": 1}

>  <_RMSD_MCS_to_ref>  (551) 
1.628591787565661

$$$$
ligand
     RDKit          3D

 61 66  0  0  0  0  0  0  0  0999 V2000
   24.8710    9.6160    7.7820 C   0  0  0  0  0  0  0  0  0  0  0  0
   25.4240   10.9650    7.3490 C   0  0  0  0  0  0  0  0  0  0  0  0
   26.8260   11.1710    7.8060 C   0  0  0  0  0  0  0  0  0  0  0  0
   27.3100   12.0470    8.7570 C   0  0  0  0  0  0  0  0  0  0  0  0
   28.6520   11.7940    8.7980 N   0  0  0  0  0  0  0  0  0  0  0  0
   29.8050   12.7760    9.5440 S   0  0  0  0  0  6  0  0  0  0  0  0
   29.4630   12.7350   10.9530 O   0  0  0  0  0  0  0  0  0  0  0  0
   31.0800   12.2910    9.0530 O   0  0  0  0  0  0  0  0  0  0  0  0
   29.5140   14.2880    8.9860 O   0  0  0  0  0  0  0  0  0  0  0  0
   28.8680   14.4180    7.7880 C   0  0  0  0  0  0  0  0  0  0  0  0
   29.5210   14.0240    6.6230 C   0  0  0  0  0  0  0  0  0  0  0  0
   28.8950   14.1460    5.3960 C   0  0  0  0  0  0  0  0  0  0  0  0
   29.5400   13.7550    4.2780 N   0  0  0  0  0  0  0  0  0  0  0  0
   28.8870   13.8870    3.1050 C   0  0  0  0  0  0  0  0  0  0  0  0
   27.6090   14.4000    2.9990 C   0  0  0  0  0  0  0  0  0  0  0  0
   26.9660   14.8000    4.1680 C   0  0  0  0  0  0  0  0  0  0  0  0
   27.5910   14.6850    5.3990 C   0  0  0  0  0  0  0  0  0  0  0  0
   26.9480   15.0840    6.5170 N   0  0  0  0  0  0  0  0  0  0  0  0
   27.5870   14.9660    7.7060 C   0  0  0  0  0  0  0  0  0  0  0  0
   26.8210   15.4310    8.8790 C   0  0  0  0  0  0  0  0  0  0  0  0
   25.5570   14.8540    9.1710 C   0  0  0  0  0  0  0  0  0  0  0  0
   24.8150   15.2310   10.2950 C   0  0  0  0  0  0  0  0  0  0  0  0
   25.3620   16.1910   11.1200 C   0  0  0  0  0  0  0  0  0  0  0  0
   26.5900   16.7930   10.8580 C   0  0  0  0  0  0  0  0  0  0  0  0
   27.3200   16.4360    9.7350 C   0  0  0  0  0  0  0  0  0  0  0  0
   26.9030   17.7880   11.9260 C   0  0  0  0  0  0  0  0  0  0  0  0
   25.8040   17.6090   12.8610 N   0  0  0  0  0  0  0  0  0  0  0  0
   25.6220   18.5040   13.9980 C   0  0  2  0  0  0  0  0  0  0  0  0
   26.2020   19.9010   13.7810 C   0  0  0  0  0  0  0  0  0  0  0  0
   25.9050   20.7630   14.9980 C   0  0  0  0  0  0  0  0  0  0  0  0
   26.4450   20.1330   16.2610 C   0  0  0  0  0  0  0  0  0  0  0  0
   26.6900   20.7910   17.2680 O   0  0  0  0  0  0  0  0  0  0  0  0
   26.5700   18.7660   16.2640 N   0  0  0  0  0  0  0  0  0  0  0  0
   26.1760   17.8800   15.2870 C   0  0  0  0  0  0  0  0  0  0  0  0
   26.1790   16.6700   15.5090 O   0  0  0  0  0  0  0  0  0  0  0  0
   24.8320   16.7540   12.3660 C   0  0  0  0  0  0  0  0  0  0  0  0
   23.7380   16.4970   12.8300 O   0  0  0  0  0  0  0  0  0  0  0  0
   28.9520   10.8540    7.8630 C   0  0  0  0  0  0  0  0  0  0  0  0
   27.8610   10.4480    7.2480 N   0  0  0  0  0  0  0  0  0  0  0  0
   24.8497    9.5640    8.8806 H   0  0  0  0  0  0  0  0  0  0  0  0
   23.8507    9.4948    7.3893 H   0  0  0  0  0  0  0  0  0  0  0  0
   25.5127    8.8135    7.3893 H   0  0  0  0  0  0  0  0  0  0  0  0
   25.3972   11.0229    6.2509 H   0  0  0  0  0  0  0  0  0  0  0  0
   24.8012   11.7479    7.8064 H   0  0  0  0  0  0  0  0  0  0  0  0
   26.7436   12.7820    9.3477 H   0  0  0  0  0  0  0  0  0  0  0  0
   30.5400   13.6136    6.6790 H   0  0  0  0  0  0  0  0  0  0  0  0
   29.3992   13.5695    2.1847 H   0  0  0  0  0  0  0  0  0  0  0  0
   27.1139   14.4899    2.0208 H   0  0  0  0  0  0  0  0  0  0  0  0
   25.9479   15.2129    4.1130 H   0  0  0  0  0  0  0  0  0  0  0  0
   25.1497   14.0887    8.4939 H   0  0  0  0  0  0  0  0  0  0  0  0
   23.8353   14.7802   10.5120 H   0  0  0  0  0  0  0  0  0  0  0  0
   28.2773   16.9304    9.5135 H   0  0  0  0  0  0  0  0  0  0  0  0
   27.8694   17.5674   12.4028 H   0  0  0  0  0  0  0  0  0  0  0  0
   26.9934   18.8179   11.5504 H   0  0  0  0  0  0  0  0  0  0  0  0
   24.5350   18.6370   14.1012 H   0  0  0  0  0  0  0  0  0  0  0  0
   27.2903   19.8290   13.6385 H   0  0  0  0  0  0  0  0  0  0  0  0
   25.7467   20.3545   12.8882 H   0  0  0  0  0  0  0  0  0  0  0  0
   26.3723   21.7494   14.8613 H   0  0  0  0  0  0  0  0  0  0  0  0
   24.8138   20.8602   15.0972 H   0  0  0  0  0  0  0  0  0  0  0  0
   27.0119   18.3535   17.0979 H   0  0  0  0  0  0  0  0  0  0  0  0
   29.9657   10.4839    7.6498 H   0  0  0  0  0  0  0  0  0  0  0  0
  1  2  1  0
  2  3  1  0
  3  4  2  0
  4  5  1  0
  5  6  1  0
  6  7  2  0
  6  8  2  0
  6  9  1  0
  9 10  1  0
 10 11  2  0
 11 12  1  0
 12 13  2  0
 13 14  1  0
 14 15  2  0
 15 16  1  0
 16 17  2  0
 17 18  1  0
 18 19  2  0
 19 20  1  0
 20 21  2  0
 21 22  1  0
 22 23  2  0
 23 24  1  0
 24 25  2  0
 24 26  1  0
 26 27  1  0
 27 28  1  0
 28 29  1  0
 29 30  1  0
 30 31  1  0
 31 32  2  0
 31 33  1  0
 33 34  1  0
 34 35  2  0
 27 36  1  0
 36 37  2  0
  5 38  1  0
 38 39  2  0
 39  3  1  0
 19 10  1  0
 25 20  1  0
 34 28  1  0
 17 12  1  0
 36 23  1  0
  1 40  1  0
  1 41  1  0
  1 42  1  0
  2 43  1  0
  2 44  1  0
  4 45  1  0
 11 46  1  0
 14 47  1  0
 15 48  1  0
 16 49  1  0
 21 50  1  0
 22 51  1  0
 25 52  1  0
 26 53  1  0
 26 54  1  0
 28 55  1  1
 29 56  1  0
 29 57  1  0
 30 58  1  0
 30 59  1  0
 33 60  1  0
 38 61  1  0
M  END
>  <meeko>  (552) 
{"is_sidechain": [true], "free_energy": -12.14, "intermolecular_energy": 0.0, "internal_energy": -12.14, "cluster_size": 10, "cluster_id": 1, "rank_in_cluster": 1}

>  <_RMSD_MCS_to_ref>  (552) 
1.948115742805961

$$$$
ligand
     RDKit          3D

 48 51  0  0  0  0  0  0  0  0999 V2000
   24.8710    9.6160    7.7820 C   0  0  0  0  0  0  0  0  0  0  0  0
   25.4240   10.9650    7.3490 C   0  0  0  0  0  0  0  0  0  0  0  0
   26.8080   11.1890    7.8480 C   0  0  0  0  0  0  0  0  0  0  0  0
   27.2180   11.8320    8.9980 C   0  0  0  0  0  0  0  0  0  0  0  0
   28.5830   11.7750    8.9470 N   0  0  0  0  0  0  0  0  0  0  0  0
   29.6510   12.6760    9.8990 S   0  0  0  0  0  6  0  0  0  0  0  0
   29.2750   12.3820   11.2700 O   0  0  0  0  0  0  0  0  0  0  0  0
   30.9620   12.3230    9.3880 O   0  0  0  0  0  0  0  0  0  0  0  0
   29.4010   14.2660    9.5940 O   0  0  0  0  0  0  0  0  0  0  0  0
   28.1220   14.7270    9.4150 C   0  0  0  0  0  0  0  0  0  0  0  0
   27.5570   14.5840    8.1550 C   0  0  0  0  0  0  0  0  0  0  0  0
   26.2490   15.0080    7.9180 C   0  0  0  0  0  0  0  0  0  0  0  0
   25.5340   15.5910    8.9780 C   0  0  0  0  0  0  0  0  0  0  0  0
   23.9260   16.1890    8.9940 S   0  0  0  0  0  0  0  0  0  0  0  0
   23.9200   16.6720   10.5690 N   0  0  0  0  0  0  0  0  0  0  0  0
   25.1090   16.4030   11.1260 C   0  0  0  0  0  0  0  0  0  0  0  0
   25.3270   16.7450   12.5450 C   0  0  0  0  0  0  0  0  0  0  0  0
   25.5460   15.9070   13.4150 O   0  0  0  0  0  0  0  0  0  0  0  0
   25.2470   18.0920   12.8220 N   0  0  0  0  0  0  0  0  0  0  0  0
   25.2780   18.6140   14.1750 C   0  0  1  0  0  0  0  0  0  0  0  0
   26.3190   17.9050   15.0360 C   0  0  0  0  0  0  0  0  0  0  0  0
   26.3210   18.5080   16.4310 C   0  0  0  0  0  0  0  0  0  0  0  0
   26.5560   20.0000   16.3830 C   0  0  0  0  0  0  0  0  0  0  0  0
   27.1620   20.6010   17.2660 O   0  0  0  0  0  0  0  0  0  0  0  0
   26.0250   20.6700   15.3100 N   0  0  0  0  0  0  0  0  0  0  0  0
   25.6000   20.1110   14.1310 C   0  0  0  0  0  0  0  0  0  0  0  0
   25.4720   20.7960   13.1170 O   0  0  0  0  0  0  0  0  0  0  0  0
   26.0850   15.7760   10.2490 C   0  0  0  0  0  0  0  0  0  0  0  0
   27.4210   15.3420   10.4560 C   0  0  0  0  0  0  0  0  0  0  0  0
   28.9580   11.1440    7.8050 C   0  0  0  0  0  0  0  0  0  0  0  0
   27.9000   10.7640    7.1170 N   0  0  0  0  0  0  0  0  0  0  0  0
   24.8497    9.5640    8.8806 H   0  0  0  0  0  0  0  0  0  0  0  0
   23.8507    9.4948    7.3893 H   0  0  0  0  0  0  0  0  0  0  0  0
   25.5127    8.8135    7.3893 H   0  0  0  0  0  0  0  0  0  0  0  0
   25.4318   11.0089    6.2499 H   0  0  0  0  0  0  0  0  0  0  0  0
   24.7794   11.7479    7.7752 H   0  0  0  0  0  0  0  0  0  0  0  0
   26.5897   12.2868    9.7780 H   0  0  0  0  0  0  0  0  0  0  0  0
   28.1431   14.1344    7.3399 H   0  0  0  0  0  0  0  0  0  0  0  0
   25.7889   14.8889    6.9260 H   0  0  0  0  0  0  0  0  0  0  0  0
   25.1619   18.7543   12.0378 H   0  0  0  0  0  0  0  0  0  0  0  0
   24.2896   18.4408   14.6256 H   0  0  0  0  0  0  0  0  0  0  0  0
   26.0739   16.8346   15.1000 H   0  0  0  0  0  0  0  0  0  0  0  0
   27.3138   18.0279   14.5828 H   0  0  0  0  0  0  0  0  0  0  0  0
   25.3486   18.3134   16.9070 H   0  0  0  0  0  0  0  0  0  0  0  0
   27.1357   18.0462   17.0081 H   0  0  0  0  0  0  0  0  0  0  0  0
   25.9367   21.6924   15.3979 H   0  0  0  0  0  0  0  0  0  0  0  0
   27.9032   15.4895   11.4336 H   0  0  0  0  0  0  0  0  0  0  0  0
   30.0001   10.9735    7.4967 H   0  0  0  0  0  0  0  0  0  0  0  0
  1  2  1  0
  2  3  1  0
  3  4  2  0
  4  5  1  0
  5  6  1  0
  6  7  2  0
  6  8  2  0
  6  9  1  0
  9 10  1  0
 10 11  2  0
 11 12  1  0
 12 13  2  0
 13 14  1  0
 14 15  1  0
 15 16  2  0
 16 17  1  0
 17 18  2  0
 17 19  1  0
 19 20  1  0
 20 21  1  0
 21 22  1  0
 22 23  1  0
 23 24  2  0
 23 25  1  0
 25 26  1  0
 26 27  2  0
 16 28  1  0
 28 29  2  0
  5 30  1  0
 30 31  2  0
 31  3  1  0
 29 10  1  0
 28 13  1  0
 26 20  1  0
  1 32  1  0
  1 33  1  0
  1 34  1  0
  2 35  1  0
  2 36  1  0
  4 37  1  0
 11 38  1  0
 12 39  1  0
 19 40  1  0
 20 41  1  1
 21 42  1  0
 21 43  1  0
 22 44  1  0
 22 45  1  0
 25 46  1  0
 29 47  1  0
 30 48  1  0
M  END
>  <meeko>  (553) 
{"is_sidechain": [true], "free_energy": -12.14, "intermolecular_energy": 0.0, "internal_energy": -12.14, "cluster_size": 11, "cluster_id": 1, "rank_in_cluster": 1}

>  <_RMSD_MCS_to_ref>  (553) 
0.7317099455689015

$$$$
ligand
     RDKit          3D

 57 61  0  0  0  0  0  0  0  0999 V2000
   24.8710    9.6160    7.7820 C   0  0  0  0  0  0  0  0  0  0  0  0
   25.4240   10.9650    7.3490 C   0  0  0  0  0  0  0  0  0  0  0  0
   26.8940   10.9240    7.1240 C   0  0  0  0  0  0  0  0  0  0  0  0
   27.6470   11.5830    6.1700 C   0  0  0  0  0  0  0  0  0  0  0  0
   28.9240   11.1550    6.3970 N   0  0  0  0  0  0  0  0  0  0  0  0
   30.3170   11.7990    5.7000 S   0  0  0  0  0  6  0  0  0  0  0  0
   30.0840   11.7110    4.2700 O   0  0  0  0  0  0  0  0  0  0  0  0
   31.4080   11.0890    6.3400 O   0  0  0  0  0  0  0  0  0  0  0  0
   30.3540   13.3650    6.1490 O   0  0  0  0  0  0  0  0  0  0  0  0
   29.2310   14.1500    6.1960 C   0  0  0  0  0  0  0  0  0  0  0  0
   28.8230   14.6660    4.9640 C   0  0  0  0  0  0  0  0  0  0  0  0
   27.6960   15.4790    4.8800 C   0  0  0  0  0  0  0  0  0  0  0  0
   26.9690   15.7820    6.0320 C   0  0  0  0  0  0  0  0  0  0  0  0
   27.3580   15.2760    7.2820 C   0  0  0  0  0  0  0  0  0  0  0  0
   26.5920   15.5980    8.4980 C   0  0  0  0  0  0  0  0  0  0  0  0
   25.3700   14.9310    8.7750 C   0  0  0  0  0  0  0  0  0  0  0  0
   24.6250   15.2150    9.9230 C   0  0  0  0  0  0  0  0  0  0  0  0
   25.1220   16.1760   10.7780 C   0  0  0  0  0  0  0  0  0  0  0  0
   26.3160   16.8500   10.5380 C   0  0  0  0  0  0  0  0  0  0  0  0
   27.0620   16.5700    9.4050 C   0  0  0  0  0  0  0  0  0  0  0  0
   26.5910   17.8140   11.6450 C   0  0  0  0  0  0  0  0  0  0  0  0
   25.4040   17.6840   12.4820 N   0  0  0  0  0  0  0  0  0  0  0  0
   25.3000   18.2430   13.8230 C   0  0  2  0  0  0  0  0  0  0  0  0
   26.1910   19.4680   14.0150 C   0  0  0  0  0  0  0  0  0  0  0  0
   25.9600   20.0480   15.4020 C   0  0  0  0  0  0  0  0  0  0  0  0
   26.1890   19.0070   16.4740 C   0  0  0  0  0  0  0  0  0  0  0  0
   26.6890   19.2820   17.5600 O   0  0  0  0  0  0  0  0  0  0  0  0
   25.7930   17.7270   16.1800 N   0  0  0  0  0  0  0  0  0  0  0  0
   25.6310   17.2110   14.9150 C   0  0  0  0  0  0  0  0  0  0  0  0
   25.7600   16.0050   14.7160 O   0  0  0  0  0  0  0  0  0  0  0  0
   24.5630   16.6710   12.0410 C   0  0  0  0  0  0  0  0  0  0  0  0
   23.5530   16.2530   12.5730 O   0  0  0  0  0  0  0  0  0  0  0  0
   28.4990   14.4540    7.3470 C   0  0  0  0  0  0  0  0  0  0  0  0
   28.9340   10.3470    7.4890 C   0  0  0  0  0  0  0  0  0  0  0  0
   27.7100   10.1660    7.9400 N   0  0  0  0  0  0  0  0  0  0  0  0
   24.8497    9.5640    8.8806 H   0  0  0  0  0  0  0  0  0  0  0  0
   23.8507    9.4948    7.3893 H   0  0  0  0  0  0  0  0  0  0  0  0
   25.5127    8.8135    7.3893 H   0  0  0  0  0  0  0  0  0  0  0  0
   24.9307   11.2661    6.4131 H   0  0  0  0  0  0  0  0  0  0  0  0
   25.2260   11.6858    8.1560 H   0  0  0  0  0  0  0  0  0  0  0  0
   27.2976   12.2903    5.4034 H   0  0  0  0  0  0  0  0  0  0  0  0
   29.3953   14.4287    4.0550 H   0  0  0  0  0  0  0  0  0  0  0  0
   27.3790   15.8820    3.9068 H   0  0  0  0  0  0  0  0  0  0  0  0
   26.0798   16.4255    5.9595 H   0  0  0  0  0  0  0  0  0  0  0  0
   25.0005   14.1724    8.0693 H   0  0  0  0  0  0  0  0  0  0  0  0
   23.6804   14.6930   10.1358 H   0  0  0  0  0  0  0  0  0  0  0  0
   28.0079   17.0985    9.2154 H   0  0  0  0  0  0  0  0  0  0  0  0
   27.4997   17.5345   12.1984 H   0  0  0  0  0  0  0  0  0  0  0  0
   26.7699   18.8417   11.2959 H   0  0  0  0  0  0  0  0  0  0  0  0
   24.2481   18.5480   13.9259 H   0  0  0  0  0  0  0  0  0  0  0  0
   27.2460   19.1745   13.9109 H   0  0  0  0  0  0  0  0  0  0  0  0
   25.9451   20.2241   13.2548 H   0  0  0  0  0  0  0  0  0  0  0  0
   26.6548   20.8859   15.5610 H   0  0  0  0  0  0  0  0  0  0  0  0
   24.9171   20.3918   15.4669 H   0  0  0  0  0  0  0  0  0  0  0  0
   25.6007   17.0991   16.9735 H   0  0  0  0  0  0  0  0  0  0  0  0
   28.8187   14.0454    8.3170 H   0  0  0  0  0  0  0  0  0  0  0  0
   29.8379    9.9057    7.9342 H   0  0  0  0  0  0  0  0  0  0  0  0
  1  2  1  0
  2  3  1  0
  3  4  2  0
  4  5  1  0
  5  6  1  0
  6  7  2  0
  6  8  2  0
  6  9  1  0
  9 10  1  0
 10 11  2  0
 11 12  1  0
 12 13  2  0
 13 14  1  0
 14 15  1  0
 15 16  2  0
 16 17  1  0
 17 18  2  0
 18 19  1  0
 19 20  2  0
 19 21  1  0
 21 22  1  0
 22 23  1  0
 23 24  1  0
 24 25  1  0
 25 26  1  0
 26 27  2  0
 26 28  1  0
 28 29  1  0
 29 30  2  0
 22 31  1  0
 31 32  2  0
 14 33  2  0
  5 34  1  0
 34 35  2  0
 35  3  1  0
 33 10  1  0
 20 15  1  0
 29 23  1  0
 31 18  1  0
  1 36  1  0
  1 37  1  0
  1 38  1  0
  2 39  1  0
  2 40  1  0
  4 41  1  0
 11 42  1  0
 12 43  1  0
 13 44  1  0
 16 45  1  0
 17 46  1  0
 20 47  1  0
 21 48  1  0
 21 49  1  0
 23 50  1  1
 24 51  1  0
 24 52  1  0
 25 53  1  0
 25 54  1  0
 28 55  1  0
 33 56  1  0
 34 57  1  0
M  END
>  <meeko>  (554) 
{"is_sidechain": [true], "free_energy": -12.14, "intermolecular_energy": 0.0, "internal_energy": -12.14, "cluster_size": 19, "cluster_id": 1, "rank_in_cluster": 1}

>  <_RMSD_MCS_to_ref>  (554) 
1.9188384918733357

$$$$
ligand
     RDKit          3D

 57 61  0  0  0  0  0  0  0  0999 V2000
   24.8540    9.4020    7.6050 C   0  0  0  0  0  0  0  0  0  0  0  0
   25.5230   10.7550    7.4270 C   0  0  0  0  0  0  0  0  0  0  0  0
   25.0070   11.4850    6.2370 C   0  0  0  0  0  0  0  0  0  0  0  0
   25.2360   12.7910    5.8530 C   0  0  0  0  0  0  0  0  0  0  0  0
   24.5080   12.9360    4.7060 N   0  0  0  0  0  0  0  0  0  0  0  0
   24.5350   14.2700    3.6760 S   0  0  0  0  0  6  0  0  0  0  0  0
   25.0970   13.7620    2.4350 O   0  0  0  0  0  0  0  0  0  0  0  0
   23.1780   14.7900    3.7180 O   0  0  0  0  0  0  0  0  0  0  0  0
   25.6390   15.4610    4.3750 C   0  0  0  0  0  0  0  0  0  0  0  0
   25.4290   15.7560    5.6760 C   0  0  0  0  0  0  0  0  0  0  0  0
   26.2540   16.6850    6.2910 N   0  0  0  0  0  0  0  0  0  0  0  0
   26.3270   17.1980    7.5740 C   0  0  0  0  0  0  0  0  0  0  0  0
   25.4400   16.8490    8.6670 C   0  0  0  0  0  0  0  0  0  0  0  0
   24.4390   16.1690    8.4780 O   0  0  0  0  0  0  0  0  0  0  0  0
   25.8440   17.3260    9.9020 N   0  0  0  0  0  0  0  0  0  0  0  0
   25.1760   17.1950   11.1410 C   0  0  0  0  0  0  0  0  0  0  0  0
   24.1270   16.2700   11.2020 C   0  0  0  0  0  0  0  0  0  0  0  0
   23.4140   16.0800   12.3860 C   0  0  0  0  0  0  0  0  0  0  0  0
   23.7450   16.8090   13.5260 C   0  0  0  0  0  0  0  0  0  0  0  0
   24.8000   17.7300   13.4970 C   0  0  0  0  0  0  0  0  0  0  0  0
   25.1730   18.5570   14.7180 C   0  0  1  0  0  0  0  0  0  0  0  0
   26.2960   17.8640   15.4970 C   0  0  0  0  0  0  0  0  0  0  0  0
   26.6200   18.6580   16.7510 C   0  0  0  0  0  0  0  0  0  0  0  0
   26.9960   20.0780   16.4110 C   0  0  0  0  0  0  0  0  0  0  0  0
   27.7290   20.7540   17.1270 O   0  0  0  0  0  0  0  0  0  0  0  0
   26.4270   20.6060   15.2800 N   0  0  0  0  0  0  0  0  0  0  0  0
   25.5640   19.9990   14.3950 C   0  0  0  0  0  0  0  0  0  0  0  0
   25.1180   20.6400   13.4450 O   0  0  0  0  0  0  0  0  0  0  0  0
   25.5040   17.9180   12.2910 C   0  0  0  0  0  0  0  0  0  0  0  0
   27.3880   18.0930    7.5090 C   0  0  0  0  0  0  0  0  0  0  0  0
   27.9670   18.1250    6.2660 N   0  0  0  0  0  0  0  0  0  0  0  0
   27.2580   17.2740    5.5660 C   0  0  0  0  0  0  0  0  0  0  0  0
   27.4220   16.9170    4.1840 C   0  0  0  0  0  0  0  0  0  0  0  0
   26.6460   16.0420    3.6020 N   0  0  0  0  0  0  0  0  0  0  0  0
   23.9280   11.7480    4.3960 C   0  0  0  0  0  0  0  0  0  0  0  0
   24.1930   10.8480    5.3200 N   0  0  0  0  0  0  0  0  0  0  0  0
   24.7464    9.1845    8.6779 H   0  0  0  0  0  0  0  0  0  0  0  0
   23.8606    9.4192    7.1330 H   0  0  0  0  0  0  0  0  0  0  0  0
   25.4708    8.6230    7.1330 H   0  0  0  0  0  0  0  0  0  0  0  0
   25.3362   11.3633    8.3242 H   0  0  0  0  0  0  0  0  0  0  0  0
   26.5990   10.5826    7.2771 H   0  0  0  0  0  0  0  0  0  0  0  0
   25.8617   13.5432    6.3557 H   0  0  0  0  0  0  0  0  0  0  0  0
   24.6184   15.2682    6.2373 H   0  0  0  0  0  0  0  0  0  0  0  0
   26.7379   17.8374    9.9205 H   0  0  0  0  0  0  0  0  0  0  0  0
   23.8623   15.6872   10.3075 H   0  0  0  0  0  0  0  0  0  0  0  0
   22.5890   15.3532   12.4194 H   0  0  0  0  0  0  0  0  0  0  0  0
   23.1744   16.6605   14.4546 H   0  0  0  0  0  0  0  0  0  0  0  0
   24.2650   18.6212   15.3356 H   0  0  0  0  0  0  0  0  0  0  0  0
   25.9730   16.8512   15.7796 H   0  0  0  0  0  0  0  0  0  0  0  0
   27.1934   17.8042   14.8636 H   0  0  0  0  0  0  0  0  0  0  0  0
   25.7382   18.6672   17.4085 H   0  0  0  0  0  0  0  0  0  0  0  0
   27.4732   18.1815   17.2561 H   0  0  0  0  0  0  0  0  0  0  0  0
   26.6774   21.5817   15.0651 H   0  0  0  0  0  0  0  0  0  0  0  0
   26.3268   18.6472   12.2541 H   0  0  0  0  0  0  0  0  0  0  0  0
   27.7252   18.7061    8.3578 H   0  0  0  0  0  0  0  0  0  0  0  0
   28.2231   17.3936    3.5999 H   0  0  0  0  0  0  0  0  0  0  0  0
   23.3209   11.5631    3.4975 H   0  0  0  0  0  0  0  0  0  0  0  0
  1  2  1  0
  2  3  1  0
  3  4  2  0
  4  5  1  0
  5  6  1  0
  6  7  2  0
  6  8  2  0
  6  9  1  0
  9 10  2  0
 10 11  1  0
 11 12  1  0
 12 13  1  0
 13 14  2  0
 13 15  1  0
 15 16  1  0
 16 17  2  0
 17 18  1  0
 18 19  2  0
 19 20  1  0
 20 21  1  0
 21 22  1  0
 22 23  1  0
 23 24  1  0
 24 25  2  0
 24 26  1  0
 26 27  1  0
 27 28  2  0
 20 29  2  0
 12 30  2  0
 30 31  1  0
 31 32  2  0
 32 33  1  0
 33 34  2  0
  5 35  1  0
 35 36  2  0
 36  3  1  0
 34  9  1  0
 32 11  1  0
 29 16  1  0
 27 21  1  0
  1 37  1  0
  1 38  1  0
  1 39  1  0
  2 40  1  0
  2 41  1  0
  4 42  1  0
 10 43  1  0
 15 44  1  0
 17 45  1  0
 18 46  1  0
 19 47  1  0
 21 48  1  1
 22 49  1  0
 22 50  1  0
 23 51  1  0
 23 52  1  0
 26 53  1  0
 29 54  1  0
 30 55  1  0
 33 56  1  0
 35 57  1  0
M  END
>  <meeko>  (555) 
{"is_sidechain": [true], "free_energy": -12.13, "intermolecular_energy": 0.0, "internal_energy": -12.13, "cluster_size": 7, "cluster_id": 1, "rank_in_cluster": 1}

>  <_RMSD_MCS_to_ref>  (555) 
0.41668438295669197

$$$$
ligand
     RDKit          3D

 60 65  0  0  0  0  0  0  0  0999 V2000
   24.8540    9.4020    7.6050 C   0  0  0  0  0  0  0  0  0  0  0  0
   25.5230   10.7550    7.4270 C   0  0  0  0  0  0  0  0  0  0  0  0
   26.9520   10.6260    7.0370 C   0  0  0  0  0  0  0  0  0  0  0  0
   28.0600   11.2550    7.5730 C   0  0  0  0  0  0  0  0  0  0  0  0
   29.1110   10.7420    6.8660 N   0  0  0  0  0  0  0  0  0  0  0  0
   30.7050   11.2550    6.9690 S   0  0  0  0  0  6  0  0  0  0  0  0
   31.5470   10.0800    7.0500 O   0  0  0  0  0  0  0  0  0  0  0  0
   30.8300   12.1920    5.8650 O   0  0  0  0  0  0  0  0  0  0  0  0
   30.8630   12.1750    8.4810 C   0  0  0  0  0  0  0  0  0  0  0  0
   31.7850   11.6870    9.4240 C   0  0  0  0  0  0  0  0  0  0  0  0
   31.9710   12.3400   10.6400 C   0  0  0  0  0  0  0  0  0  0  0  0
   31.2320   13.4820   10.9310 C   0  0  0  0  0  0  0  0  0  0  0  0
   30.3010   13.9800   10.0160 C   0  0  0  0  0  0  0  0  0  0  0  0
   29.5830   15.1450   10.3940 N   0  0  0  0  0  0  0  0  0  0  0  0
   28.6910   15.6730    9.5990 C   0  0  0  0  0  0  0  0  0  0  0  0
   27.9210   16.7950    9.8350 N   0  0  0  0  0  0  0  0  0  0  0  0
   26.7480   16.9480   10.5910 C   0  0  0  0  0  0  0  0  0  0  0  0
   25.5530   16.4140   10.0810 C   0  0  0  0  0  0  0  0  0  0  0  0
   24.3550   16.5050   10.7900 C   0  0  0  0  0  0  0  0  0  0  0  0
   24.3270   17.1260   12.0360 C   0  0  0  0  0  0  0  0  0  0  0  0
   25.4990   17.6610   12.5810 C   0  0  0  0  0  0  0  0  0  0  0  0
   25.4710   18.3170   13.9520 C   0  0  1  0  0  0  0  0  0  0  0  0
   26.5900   17.7540   14.8370 C   0  0  0  0  0  0  0  0  0  0  0  0
   26.5410   18.4030   16.2100 C   0  0  0  0  0  0  0  0  0  0  0  0
   26.6530   19.9030   16.0990 C   0  0  0  0  0  0  0  0  0  0  0  0
   27.0880   20.5990   17.0130 O   0  0  0  0  0  0  0  0  0  0  0  0
   26.1780   20.4680   14.9430 N   0  0  0  0  0  0  0  0  0  0  0  0
   25.5500   19.8440   13.8900 C   0  0  0  0  0  0  0  0  0  0  0  0
   25.0350   20.5220   13.0020 O   0  0  0  0  0  0  0  0  0  0  0  0
   26.6990   17.5590   11.8480 C   0  0  0  0  0  0  0  0  0  0  0  0
   28.4600   15.0490    8.3600 N   0  0  0  0  0  0  0  0  0  0  0  0
   27.5700   15.5020    7.4440 N   0  0  0  0  0  0  0  0  0  0  0  0
   27.7400   14.6030    6.4690 C   0  0  0  0  0  0  0  0  0  0  0  0
   28.6710   13.6290    6.7200 N   0  0  0  0  0  0  0  0  0  0  0  0
   29.1100   13.9300    7.9180 C   0  0  0  0  0  0  0  0  0  0  0  0
   30.1100   13.3200    8.7730 C   0  0  0  0  0  0  0  0  0  0  0  0
   28.6310    9.9280    5.8900 C   0  0  0  0  0  0  0  0  0  0  0  0
   27.3230    9.8040    5.9900 N   0  0  0  0  0  0  0  0  0  0  0  0
   24.7464    9.1845    8.6779 H   0  0  0  0  0  0  0  0  0  0  0  0
   23.8606    9.4192    7.1330 H   0  0  0  0  0  0  0  0  0  0  0  0
   25.4708    8.6230    7.1330 H   0  0  0  0  0  0  0  0  0  0  0  0
   24.9905   11.3135    6.6431 H   0  0  0  0  0  0  0  0  0  0  0  0
   25.4816   11.2826    8.3913 H   0  0  0  0  0  0  0  0  0  0  0  0
   28.0891   11.9984    8.3833 H   0  0  0  0  0  0  0  0  0  0  0  0
   32.3654   10.7801    9.1989 H   0  0  0  0  0  0  0  0  0  0  0  0
   32.6998   11.9540   11.3679 H   0  0  0  0  0  0  0  0  0  0  0  0
   31.3821   13.9980   11.8908 H   0  0  0  0  0  0  0  0  0  0  0  0
   28.2615   17.6565    9.3847 H   0  0  0  0  0  0  0  0  0  0  0  0
   25.5621   15.9133    9.1016 H   0  0  0  0  0  0  0  0  0  0  0  0
   23.4315   16.0857   10.3643 H   0  0  0  0  0  0  0  0  0  0  0  0
   23.3811   17.1960   12.5930 H   0  0  0  0  0  0  0  0  0  0  0  0
   24.4952   18.0739   14.3979 H   0  0  0  0  0  0  0  0  0  0  0  0
   26.4591   16.6670   14.9428 H   0  0  0  0  0  0  0  0  0  0  0  0
   27.5627   17.9683   14.3702 H   0  0  0  0  0  0  0  0  0  0  0  0
   25.5875   18.1477   16.6955 H   0  0  0  0  0  0  0  0  0  0  0  0
   27.3868   18.0300   16.8061 H   0  0  0  0  0  0  0  0  0  0  0  0
   26.3076   21.4858   14.8520 H   0  0  0  0  0  0  0  0  0  0  0  0
   27.6237   17.9721   12.2773 H   0  0  0  0  0  0  0  0  0  0  0  0
   27.1708   14.6425    5.5285 H   0  0  0  0  0  0  0  0  0  0  0  0
   29.2490    9.4397    5.1221 H   0  0  0  0  0  0  0  0  0  0  0  0
  1  2  1  0
  2  3  1  0
  3  4  2  0
  4  5  1  0
  5  6  1  0
  6  7  2  0
  6  8  2  0
  6  9  1  0
  9 10  2  0
 10 11  1  0
 11 12  2  0
 12 13  1  0
 13 14  1  0
 14 15  2  0
 15 16  1  0
 16 17  1  0
 17 18  2  0
 18 19  1  0
 19 20  2  0
 20 21  1  0
 21 22  1  0
 22 23  1  0
 23 24  1  0
 24 25  1  0
 25 26  2  0
 25 27  1  0
 27 28  1  0
 28 29  2  0
 21 30  2  0
 15 31  1  0
 31 32  1  0
 32 33  2  0
 33 34  1  0
 34 35  2  0
 35 36  1  0
  5 37  1  0
 37 38  2  0
 38  3  1  0
 36  9  1  0
 36 13  2  0
 30 17  1  0
 35 31  1  0
 28 22  1  0
  1 39  1  0
  1 40  1  0
  1 41  1  0
  2 42  1  0
  2 43  1  0
  4 44  1  0
 10 45  1  0
 11 46  1  0
 12 47  1  0
 16 48  1  0
 18 49  1  0
 19 50  1  0
 20 51  1  0
 22 52  1  1
 23 53  1  0
 23 54  1  0
 24 55  1  0
 24 56  1  0
 27 57  1  0
 30 58  1  0
 33 59  1  0
 37 60  1  0
M  END
>  <meeko>  (556) 
{"is_sidechain": [true], "free_energy": -12.13, "intermolecular_energy": 0.0, "internal_energy": -12.13, "cluster_size": 15, "cluster_id": 1, "rank_in_cluster": 1}

>  <_RMSD_MCS_to_ref>  (556) 
0.7456004291844252

$$$$
ligand
     RDKit          3D

 53 57  0  0  0  0  0  0  0  0999 V2000
   24.8540    9.4020    7.6050 C   0  0  0  0  0  0  0  0  0  0  0  0
   25.5230   10.7550    7.4270 C   0  0  0  0  0  0  0  0  0  0  0  0
   25.1830   11.3830    6.1200 C   0  0  0  0  0  0  0  0  0  0  0  0
   25.8920   12.3210    5.3970 C   0  0  0  0  0  0  0  0  0  0  0  0
   25.1360   12.5190    4.2770 N   0  0  0  0  0  0  0  0  0  0  0  0
   25.4780   13.6250    3.0490 S   0  0  0  0  0  6  0  0  0  0  0  0
   26.6740   13.0820    2.4270 O   0  0  0  0  0  0  0  0  0  0  0  0
   24.2540   13.7670    2.2810 O   0  0  0  0  0  0  0  0  0  0  0  0
   25.8860   15.0490    3.7130 O   0  0  0  0  0  0  0  0  0  0  0  0
   26.0570   15.1780    5.0180 C   0  0  0  0  0  0  0  0  0  0  0  0
   27.1780   14.8900    5.6300 N   0  0  0  0  0  0  0  0  0  0  0  0
   27.0440   15.1480    6.9810 C   0  0  0  0  0  0  0  0  0  0  0  0
   25.8200   15.6490    7.3870 C   0  0  0  0  0  0  0  0  0  0  0  0
   25.3500   16.0030    8.7300 C   0  0  0  0  0  0  0  0  0  0  0  0
   24.1800   15.3900    9.2440 C   0  0  0  0  0  0  0  0  0  0  0  0
   23.7000   15.6890   10.5220 C   0  0  0  0  0  0  0  0  0  0  0  0
   24.4110   16.6070   11.2670 C   0  0  0  0  0  0  0  0  0  0  0  0
   25.5680   17.2210   10.7960 C   0  0  0  0  0  0  0  0  0  0  0  0
   26.0510   16.9280    9.5290 C   0  0  0  0  0  0  0  0  0  0  0  0
   26.1150   18.1510   11.8310 C   0  0  0  0  0  0  0  0  0  0  0  0
   25.1390   18.0270   12.9080 N   0  0  0  0  0  0  0  0  0  0  0  0
   25.3240   18.5870   14.2460 C   0  0  1  0  0  0  0  0  0  0  0  0
   26.5350   17.9570   14.9350 C   0  0  0  0  0  0  0  0  0  0  0  0
   26.6270   18.4550   16.3690 C   0  0  0  0  0  0  0  0  0  0  0  0
   26.6840   19.9620   16.4200 C   0  0  0  0  0  0  0  0  0  0  0  0
   27.3160   20.5690   17.2790 O   0  0  0  0  0  0  0  0  0  0  0  0
   25.9630   20.6350   15.4670 N   0  0  0  0  0  0  0  0  0  0  0  0
   25.4480   20.1190   14.2990 C   0  0  0  0  0  0  0  0  0  0  0  0
   25.0970   20.8750   13.3960 O   0  0  0  0  0  0  0  0  0  0  0  0
   24.1550   17.0950   12.6260 C   0  0  0  0  0  0  0  0  0  0  0  0
   23.2620   16.7060   13.3530 O   0  0  0  0  0  0  0  0  0  0  0  0
   24.8020   15.7890    6.0060 S   0  0  0  0  0  0  0  0  0  0  0  0
   24.0120   11.7610    4.3560 C   0  0  0  0  0  0  0  0  0  0  0  0
   24.0160   11.0470    5.4630 N   0  0  0  0  0  0  0  0  0  0  0  0
   24.7464    9.1845    8.6779 H   0  0  0  0  0  0  0  0  0  0  0  0
   23.8606    9.4192    7.1330 H   0  0  0  0  0  0  0  0  0  0  0  0
   25.4708    8.6230    7.1330 H   0  0  0  0  0  0  0  0  0  0  0  0
   25.1937   11.4224    8.2370 H   0  0  0  0  0  0  0  0  0  0  0  0
   26.6116   10.5997    7.4540 H   0  0  0  0  0  0  0  0  0  0  0  0
   26.8465   12.7991    5.6620 H   0  0  0  0  0  0  0  0  0  0  0  0
   27.8630   14.9656    7.6923 H   0  0  0  0  0  0  0  0  0  0  0  0
   23.6374   14.6623    8.6228 H   0  0  0  0  0  0  0  0  0  0  0  0
   22.7916   15.2115   10.9181 H   0  0  0  0  0  0  0  0  0  0  0  0
   26.9661   17.4098    9.1543 H   0  0  0  0  0  0  0  0  0  0  0  0
   27.1153   17.8349   12.1617 H   0  0  0  0  0  0  0  0  0  0  0  0
   26.2452   19.1824   11.4714 H   0  0  0  0  0  0  0  0  0  0  0  0
   24.3959   18.3368   14.7809 H   0  0  0  0  0  0  0  0  0  0  0  0
   26.4272   16.8623   14.9346 H   0  0  0  0  0  0  0  0  0  0  0  0
   27.4495   18.2389   14.3927 H   0  0  0  0  0  0  0  0  0  0  0  0
   25.7434   18.1102   16.9261 H   0  0  0  0  0  0  0  0  0  0  0  0
   27.5484   18.0559   16.8182 H   0  0  0  0  0  0  0  0  0  0  0  0
   25.7879   21.6344   15.6442 H   0  0  0  0  0  0  0  0  0  0  0  0
   23.2112   11.7454    3.6020 H   0  0  0  0  0  0  0  0  0  0  0  0
  1  2  1  0
  2  3  1  0
  3  4  2  0
  4  5  1  0
  5  6  1  0
  6  7  2  0
  6  8  2  0
  6  9  1  0
  9 10  1  0
 10 11  2  0
 11 12  1  0
 12 13  2  0
 13 14  1  0
 14 15  2  0
 15 16  1  0
 16 17  2  0
 17 18  1  0
 18 19  2  0
 18 20  1  0
 20 21  1  0
 21 22  1  0
 22 23  1  0
 23 24  1  0
 24 25  1  0
 25 26  2  0
 25 27  1  0
 27 28  1  0
 28 29  2  0
 21 30  1  0
 30 31  2  0
 13 32  1  0
  5 33  1  0
 33 34  2  0
 34  3  1  0
 32 10  1  0
 19 14  1  0
 28 22  1  0
 30 17  1  0
  1 35  1  0
  1 36  1  0
  1 37  1  0
  2 38  1  0
  2 39  1  0
  4 40  1  0
 12 41  1  0
 15 42  1  0
 16 43  1  0
 19 44  1  0
 20 45  1  0
 20 46  1  0
 22 47  1  1
 23 48  1  0
 23 49  1  0
 24 50  1  0
 24 51  1  0
 27 52  1  0
 33 53  1  0
M  END
>  <meeko>  (557) 
{"is_sidechain": [true], "free_energy": -12.12, "intermolecular_energy": 0.0, "internal_energy": -12.12, "cluster_size": 15, "cluster_id": 1, "rank_in_cluster": 1}

>  <_RMSD_MCS_to_ref>  (557) 
0.5717739452304942

$$$$
ligand
     RDKit          3D

 62 66  0  0  0  0  0  0  0  0999 V2000
   24.8540    9.4020    7.6050 C   0  0  0  0  0  0  0  0  0  0  0  0
   25.5230   10.7550    7.4270 C   0  0  0  0  0  0  0  0  0  0  0  0
   26.9910   10.6890    7.6650 C   0  0  0  0  0  0  0  0  0  0  0  0
   27.8490   11.6980    8.0550 C   0  0  0  0  0  0  0  0  0  0  0  0
   29.0750   11.1050    8.0770 N   0  0  0  0  0  0  0  0  0  0  0  0
   30.5170   11.8380    8.5320 S   0  0  0  0  0  6  0  0  0  0  0  0
   30.2590   12.4920    9.7990 O   0  0  0  0  0  0  0  0  0  0  0  0
   31.5220   10.7980    8.4020 O   0  0  0  0  0  0  0  0  0  0  0  0
   30.7870   13.0930    7.3120 C   0  0  0  0  0  0  0  0  0  0  0  0
   32.0030   13.0540    6.6060 C   0  0  0  0  0  0  0  0  0  0  0  0
   32.2690   13.9770    5.5870 C   0  0  0  0  0  0  0  0  0  0  0  0
   31.3190   14.9310    5.2370 C   0  0  0  0  0  0  0  0  0  0  0  0
   30.1120   14.9460    5.9190 C   0  0  0  0  0  0  0  0  0  0  0  0
   29.8360   14.0570    6.9760 C   0  0  0  0  0  0  0  0  0  0  0  0
   28.4640   14.3620    7.5430 C   0  0  1  0  0  0  0  0  0  0  0  0
   28.5140   15.2650    8.7880 C   0  0  0  0  0  0  0  0  0  0  0  0
   29.5770   15.5810    9.3150 O   0  0  0  0  0  0  0  0  0  0  0  0
   27.2580   15.6350    9.2330 N   0  0  0  0  0  0  0  0  0  0  0  0
   26.9280   16.3790   10.3830 C   0  0  0  0  0  0  0  0  0  0  0  0
   27.4250   17.6510   10.6630 C   0  0  0  0  0  0  0  0  0  0  0  0
   27.0830   18.3000   11.8560 C   0  0  0  0  0  0  0  0  0  0  0  0
   26.2370   17.6910   12.7920 C   0  0  0  0  0  0  0  0  0  0  0  0
   25.8810   18.4160   14.0780 C   0  0  1  0  0  0  0  0  0  0  0  0
   26.6750   17.8430   15.2580 C   0  0  0  0  0  0  0  0  0  0  0  0
   26.2670   18.5460   16.5420 C   0  0  0  0  0  0  0  0  0  0  0  0
   26.4640   20.0380   16.4290 C   0  0  0  0  0  0  0  0  0  0  0  0
   26.6420   20.7520   17.4120 O   0  0  0  0  0  0  0  0  0  0  0  0
   26.3690   20.5740   15.1700 N   0  0  0  0  0  0  0  0  0  0  0  0
   26.0720   19.9300   13.9900 C   0  0  0  0  0  0  0  0  0  0  0  0
   25.9150   20.5850   12.9630 O   0  0  0  0  0  0  0  0  0  0  0  0
   25.7270   16.4190   12.4990 C   0  0  0  0  0  0  0  0  0  0  0  0
   26.0680   15.7740   11.3070 C   0  0  0  0  0  0  0  0  0  0  0  0
   27.8260   15.1260    6.3600 C   0  0  0  0  0  0  0  0  0  0  0  0
   28.9650   15.8760    5.6630 C   0  0  0  0  0  0  0  0  0  0  0  0
   28.9440    9.7920    7.7590 C   0  0  0  0  0  0  0  0  0  0  0  0
   27.6850    9.5040    7.5000 N   0  0  0  0  0  0  0  0  0  0  0  0
   24.7464    9.1845    8.6779 H   0  0  0  0  0  0  0  0  0  0  0  0
   23.8606    9.4192    7.1330 H   0  0  0  0  0  0  0  0  0  0  0  0
   25.4708    8.6230    7.1330 H   0  0  0  0  0  0  0  0  0  0  0  0
   25.3456   11.1061    6.3997 H   0  0  0  0  0  0  0  0  0  0  0  0
   25.0907   11.4466    8.1652 H   0  0  0  0  0  0  0  0  0  0  0  0
   27.5994   12.7424    8.2935 H   0  0  0  0  0  0  0  0  0  0  0  0
   32.7534   12.2899    6.8571 H   0  0  0  0  0  0  0  0  0  0  0  0
   33.2344   13.9475    5.0605 H   0  0  0  0  0  0  0  0  0  0  0  0
   31.5211   15.6578    4.4364 H   0  0  0  0  0  0  0  0  0  0  0  0
   27.9274   13.4630    7.8805 H   0  0  0  0  0  0  0  0  0  0  0  0
   26.4651   15.3285    8.6513 H   0  0  0  0  0  0  0  0  0  0  0  0
   28.0904   18.1484    9.9420 H   0  0  0  0  0  0  0  0  0  0  0  0
   27.4848   19.3032   12.0612 H   0  0  0  0  0  0  0  0  0  0  0  0
   24.8069   18.2453   14.2431 H   0  0  0  0  0  0  0  0  0  0  0  0
   26.4680   16.7665   15.3493 H   0  0  0  0  0  0  0  0  0  0  0  0
   27.7497   17.9999   15.0834 H   0  0  0  0  0  0  0  0  0  0  0  0
   25.2060   18.3377   16.7444 H   0  0  0  0  0  0  0  0  0  0  0  0
   26.8971   18.1708   17.3619 H   0  0  0  0  0  0  0  0  0  0  0  0
   26.5418   21.5869   15.0983 H   0  0  0  0  0  0  0  0  0  0  0  0
   25.0526   15.9241   13.2133 H   0  0  0  0  0  0  0  0  0  0  0  0
   25.6550   14.7774   11.0920 H   0  0  0  0  0  0  0  0  0  0  0  0
   27.3529   14.4195    5.6621 H   0  0  0  0  0  0  0  0  0  0  0  0
   27.0467   15.8199    6.7081 H   0  0  0  0  0  0  0  0  0  0  0  0
   28.7725   15.9945    4.5865 H   0  0  0  0  0  0  0  0  0  0  0  0
   29.1221   16.9030    6.0244 H   0  0  0  0  0  0  0  0  0  0  0  0
   29.7729    9.0698    7.7227 H   0  0  0  0  0  0  0  0  0  0  0  0
  1  2  1  0
  2  3  1  0
  3  4  2  0
  4  5  1  0
  5  6  1  0
  6  7  2  0
  6  8  2  0
  6  9  1  0
  9 10  2  0
 10 11  1  0
 11 12  2  0
 12 13  1  0
 13 14  2  0
 14 15  1  0
 15 16  1  0
 16 17  2  0
 16 18  1  0
 18 19  1  0
 19 20  2  0
 20 21  1  0
 21 22  2  0
 22 23  1  0
 23 24  1  0
 24 25  1  0
 25 26  1  0
 26 27  2  0
 26 28  1  0
 28 29  1  0
 29 30  2  0
 22 31  1  0
 31 32  2  0
 15 33  1  0
 33 34  1  0
  5 35  1  0
 35 36  2  0
 36  3  1  0
 14  9  1  0
 32 19  1  0
 34 13  1  0
 29 23  1  0
  1 37  1  0
  1 38  1  0
  1 39  1  0
  2 40  1  0
  2 41  1  0
  4 42  1  0
 10 43  1  0
 11 44  1  0
 12 45  1  0
 15 46  1  1
 18 47  1  0
 20 48  1  0
 21 49  1  0
 23 50  1  1
 24 51  1  0
 24 52  1  0
 25 53  1  0
 25 54  1  0
 28 55  1  0
 31 56  1  0
 32 57  1  0
 33 58  1  0
 33 59  1  0
 34 60  1  0
 34 61  1  0
 35 62  1  0
M  END
>  <meeko>  (558) 
{"is_sidechain": [true], "free_energy": -12.12, "intermolecular_energy": 0.0, "internal_energy": -12.12, "cluster_size": 7, "cluster_id": 1, "rank_in_cluster": 1}

>  <_RMSD_MCS_to_ref>  (558) 
0.953734043116842

$$$$
ligand
     RDKit          3D

 60 65  0  0  0  0  0  0  0  0999 V2000
   24.8540    9.4020    7.6050 C   0  0  0  0  0  0  0  0  0  0  0  0
   25.5230   10.7550    7.4270 C   0  0  0  0  0  0  0  0  0  0  0  0
   24.8030   11.6130    6.4470 C   0  0  0  0  0  0  0  0  0  0  0  0
   25.2690   12.1680    5.2710 C   0  0  0  0  0  0  0  0  0  0  0  0
   24.1920   12.8400    4.7680 N   0  0  0  0  0  0  0  0  0  0  0  0
   24.2140   13.8710    3.4460 S   0  0  0  0  0  6  0  0  0  0  0  0
   23.0450   14.7200    3.5590 O   0  0  0  0  0  0  0  0  0  0  0  0
   24.4740   13.0320    2.2910 O   0  0  0  0  0  0  0  0  0  0  0  0
   25.5800   14.9140    3.5800 C   0  0  0  0  0  0  0  0  0  0  0  0
   26.4580   15.2290    2.5620 C   0  0  0  0  0  0  0  0  0  0  0  0
   27.4160   16.0550    3.0790 N   0  0  0  0  0  0  0  0  0  0  0  0
   27.1820   16.2730    4.4190 C   0  0  0  0  0  0  0  0  0  0  0  0
   27.9060   17.0370    5.3390 C   0  0  0  0  0  0  0  0  0  0  0  0
   27.4300   17.0950    6.6540 C   0  0  0  0  0  0  0  0  0  0  0  0
   26.2670   16.4220    7.0540 C   0  0  0  0  0  0  0  0  0  0  0  0
   25.7810   16.5120    8.4420 C   0  0  0  0  0  0  0  0  0  0  0  0
   24.7780   15.6260    8.9130 C   0  0  0  0  0  0  0  0  0  0  0  0
   24.3020   15.6910   10.2250 C   0  0  0  0  0  0  0  0  0  0  0  0
   24.8440   16.6570   11.0490 C   0  0  0  0  0  0  0  0  0  0  0  0
   25.8270   17.5420   10.6200 C   0  0  0  0  0  0  0  0  0  0  0  0
   26.3060   17.4810    9.3210 C   0  0  0  0  0  0  0  0  0  0  0  0
   26.2260   18.4410   11.7410 C   0  0  0  0  0  0  0  0  0  0  0  0
   25.2980   18.0640   12.8000 N   0  0  0  0  0  0  0  0  0  0  0  0
   25.4660   18.5520   14.1640 C   0  0  1  0  0  0  0  0  0  0  0  0
   26.6630   17.9390   14.8930 C   0  0  0  0  0  0  0  0  0  0  0  0
   26.7090   18.4680   16.3180 C   0  0  0  0  0  0  0  0  0  0  0  0
   26.7660   19.9770   16.3410 C   0  0  0  0  0  0  0  0  0  0  0  0
   27.2160   20.6000   17.2990 O   0  0  0  0  0  0  0  0  0  0  0  0
   26.2110   20.6320   15.2700 N   0  0  0  0  0  0  0  0  0  0  0  0
   25.5390   20.0850   14.2010 C   0  0  0  0  0  0  0  0  0  0  0  0
   24.9520   20.8130   13.4010 O   0  0  0  0  0  0  0  0  0  0  0  0
   24.5450   16.9520   12.4540 C   0  0  0  0  0  0  0  0  0  0  0  0
   23.7870   16.3050   13.1500 O   0  0  0  0  0  0  0  0  0  0  0  0
   25.5660   15.6610    6.0970 C   0  0  0  0  0  0  0  0  0  0  0  0
   26.0220   15.5750    4.7630 C   0  0  0  0  0  0  0  0  0  0  0  0
   23.1530   12.7290    5.6350 C   0  0  0  0  0  0  0  0  0  0  0  0
   23.4870   11.9730    6.6620 N   0  0  0  0  0  0  0  0  0  0  0  0
   24.7464    9.1845    8.6779 H   0  0  0  0  0  0  0  0  0  0  0  0
   23.8606    9.4192    7.1330 H   0  0  0  0  0  0  0  0  0  0  0  0
   25.4708    8.6230    7.1330 H   0  0  0  0  0  0  0  0  0  0  0  0
   25.5458   11.2696    8.3989 H   0  0  0  0  0  0  0  0  0  0  0  0
   26.5388   10.5817    7.0421 H   0  0  0  0  0  0  0  0  0  0  0  0
   26.2772   12.0871    4.8386 H   0  0  0  0  0  0  0  0  0  0  0  0
   26.3972   14.8779    1.5213 H   0  0  0  0  0  0  0  0  0  0  0  0
   28.1995   16.4564    2.5443 H   0  0  0  0  0  0  0  0  0  0  0  0
   28.8182   17.5740    5.0398 H   0  0  0  0  0  0  0  0  0  0  0  0
   27.9855   17.6868    7.3964 H   0  0  0  0  0  0  0  0  0  0  0  0
   24.3653   14.8699    8.2290 H   0  0  0  0  0  0  0  0  0  0  0  0
   23.5264   15.0001   10.5869 H   0  0  0  0  0  0  0  0  0  0  0  0
   27.0850   18.1790    8.9806 H   0  0  0  0  0  0  0  0  0  0  0  0
   27.2679   18.2595   12.0434 H   0  0  0  0  0  0  0  0  0  0  0  0
   26.1813   19.5089   11.4812 H   0  0  0  0  0  0  0  0  0  0  0  0
   24.5694   18.2219   14.7091 H   0  0  0  0  0  0  0  0  0  0  0  0
   26.5608   16.8439   14.9108 H   0  0  0  0  0  0  0  0  0  0  0  0
   27.5915   18.2103   14.3693 H   0  0  0  0  0  0  0  0  0  0  0  0
   25.8074   18.1352   16.8532 H   0  0  0  0  0  0  0  0  0  0  0  0
   27.6157   18.0786   16.8040 H   0  0  0  0  0  0  0  0  0  0  0  0
   26.3095   21.6573   15.2660 H   0  0  0  0  0  0  0  0  0  0  0  0
   24.6512   15.1267    6.3931 H   0  0  0  0  0  0  0  0  0  0  0  0
   22.1699   13.2036    5.4994 H   0  0  0  0  0  0  0  0  0  0  0  0
  1  2  1  0
  2  3  1  0
  3  4  2  0
  4  5  1  0
  5  6  1  0
  6  7  2  0
  6  8  2  0
  6  9  1  0
  9 10  2  0
 10 11  1  0
 11 12  1  0
 12 13  2  0
 13 14  1  0
 14 15  2  0
 15 16  1  0
 16 17  2  0
 17 18  1  0
 18 19  2  0
 19 20  1  0
 20 21  2  0
 20 22  1  0
 22 23  1  0
 23 24  1  0
 24 25  1  0
 25 26  1  0
 26 27  1  0
 27 28  2  0
 27 29  1  0
 29 30  1  0
 30 31  2  0
 23 32  1  0
 32 33  2  0
 15 34  1  0
 34 35  2  0
  5 36  1  0
 36 37  2  0
 37  3  1  0
 35  9  1  0
 35 12  1  0
 21 16  1  0
 30 24  1  0
 32 19  1  0
  1 38  1  0
  1 39  1  0
  1 40  1  0
  2 41  1  0
  2 42  1  0
  4 43  1  0
 10 44  1  0
 11 45  1  0
 13 46  1  0
 14 47  1  0
 17 48  1  0
 18 49  1  0
 21 50  1  0
 22 51  1  0
 22 52  1  0
 24 53  1  1
 25 54  1  0
 25 55  1  0
 26 56  1  0
 26 57  1  0
 29 58  1  0
 34 59  1  0
 36 60  1  0
M  END
>  <meeko>  (559) 
{"is_sidechain": [true], "free_energy": -12.11, "intermolecular_energy": 0.0, "internal_energy": -12.11, "cluster_size": 11, "cluster_id": 2, "rank_in_cluster": 1}

>  <_RMSD_MCS_to_ref>  (559) 
0.6359276688429267

$$$$
ligand
     RDKit          3D

 63 67  0  0  0  0  0  0  0  0999 V2000
   24.8540    9.4020    7.6050 C   0  0  0  0  0  0  0  0  0  0  0  0
   25.5230   10.7550    7.4270 C   0  0  0  0  0  0  0  0  0  0  0  0
   26.9950   10.6340    7.2430 C   0  0  0  0  0  0  0  0  0  0  0  0
   27.7780   11.0840    6.1990 C   0  0  0  0  0  0  0  0  0  0  0  0
   29.0430   10.7020    6.5400 N   0  0  0  0  0  0  0  0  0  0  0  0
   30.4550   11.1590    5.7530 S   0  0  0  0  0  6  0  0  0  0  0  0
   30.5070   10.3710    4.5350 O   0  0  0  0  0  0  0  0  0  0  0  0
   31.5040   11.1050    6.7540 O   0  0  0  0  0  0  0  0  0  0  0  0
   30.1580   12.8510    5.3240 C   0  0  0  0  0  0  0  0  0  0  0  0
   31.0400   13.5200    4.4740 C   0  0  0  0  0  0  0  0  0  0  0  0
   30.8080   14.8600    4.1670 C   0  0  0  0  0  0  0  0  0  0  0  0
   29.7060   15.5330    4.7140 C   0  0  0  0  0  0  0  0  0  0  0  0
   28.8030   14.8530    5.5530 C   0  0  0  0  0  0  0  0  0  0  0  0
   29.0330   13.4990    5.8430 C   0  0  0  0  0  0  0  0  0  0  0  0
   27.5920   15.5680    6.1420 C   0  0  1  0  0  0  0  0  0  0  0  0
   27.6170   15.6740    7.6970 C   0  0  0  0  0  0  0  0  0  0  0  0
   28.2760   14.9160    8.4050 O   0  0  0  0  0  0  0  0  0  0  0  0
   26.7690   16.6770    8.1480 N   0  0  0  0  0  0  0  0  0  0  0  0
   26.5180   17.0790    9.4710 C   0  0  0  0  0  0  0  0  0  0  0  0
   25.4150   16.5040   10.1140 C   0  0  0  0  0  0  0  0  0  0  0  0
   25.0930   16.8500   11.4300 C   0  0  0  0  0  0  0  0  0  0  0  0
   25.8660   17.7830   12.1320 C   0  0  0  0  0  0  0  0  0  0  0  0
   25.5150   18.1370   13.5670 C   0  0  1  0  0  0  0  0  0  0  0  0
   26.2910   17.2500   14.5480 C   0  0  0  0  0  0  0  0  0  0  0  0
   25.8950   17.5920   15.9750 C   0  0  0  0  0  0  0  0  0  0  0  0
   26.1280   19.0530   16.2680 C   0  0  0  0  0  0  0  0  0  0  0  0
   26.2960   19.4750   17.4080 O   0  0  0  0  0  0  0  0  0  0  0  0
   26.0700   19.9080   15.1960 N   0  0  0  0  0  0  0  0  0  0  0  0
   25.7330   19.6150   13.8940 C   0  0  0  0  0  0  0  0  0  0  0  0
   25.5580   20.5280   13.0900 O   0  0  0  0  0  0  0  0  0  0  0  0
   26.9700   18.3550   11.4840 C   0  0  0  0  0  0  0  0  0  0  0  0
   27.2910   18.0050   10.1670 C   0  0  0  0  0  0  0  0  0  0  0  0
   27.3450   16.8590    5.5450 O   0  0  0  0  0  0  0  0  0  0  0  0
   28.5460   17.6230    5.3930 C   0  0  0  0  0  0  0  0  0  0  0  0
   29.4460   16.9720    4.3530 C   0  0  0  0  0  0  0  0  0  0  0  0
   29.0120   10.0960    7.7540 C   0  0  0  0  0  0  0  0  0  0  0  0
   27.7770   10.0210    8.2040 N   0  0  0  0  0  0  0  0  0  0  0  0
   24.7464    9.1845    8.6779 H   0  0  0  0  0  0  0  0  0  0  0  0
   23.8606    9.4192    7.1330 H   0  0  0  0  0  0  0  0  0  0  0  0
   25.4708    8.6230    7.1330 H   0  0  0  0  0  0  0  0  0  0  0  0
   25.0947   11.2484    6.5421 H   0  0  0  0  0  0  0  0  0  0  0  0
   25.3437   11.3432    8.3391 H   0  0  0  0  0  0  0  0  0  0  0  0
   27.4559   11.6266    5.2980 H   0  0  0  0  0  0  0  0  0  0  0  0
   31.9092   12.9954    4.0507 H   0  0  0  0  0  0  0  0  0  0  0  0
   31.4936   15.3926    3.4915 H   0  0  0  0  0  0  0  0  0  0  0  0
   28.3266   12.9465    6.4800 H   0  0  0  0  0  0  0  0  0  0  0  0
   26.7462   14.9152    5.8804 H   0  0  0  0  0  0  0  0  0  0  0  0
   26.2576   17.1933    7.4181 H   0  0  0  0  0  0  0  0  0  0  0  0
   24.7943   15.7713    9.5774 H   0  0  0  0  0  0  0  0  0  0  0  0
   24.2241   16.3848   11.9185 H   0  0  0  0  0  0  0  0  0  0  0  0
   24.4373   17.9472   13.6786 H   0  0  0  0  0  0  0  0  0  0  0  0
   26.0585   16.1937   14.3477 H   0  0  0  0  0  0  0  0  0  0  0  0
   27.3696   17.4230   14.4190 H   0  0  0  0  0  0  0  0  0  0  0  0
   24.8285   17.3629   16.1166 H   0  0  0  0  0  0  0  0  0  0  0  0
   26.5132   16.9951   16.6617 H   0  0  0  0  0  0  0  0  0  0  0  0
   26.3083   20.8911   15.3899 H   0  0  0  0  0  0  0  0  0  0  0  0
   27.5922   19.0886   12.0175 H   0  0  0  0  0  0  0  0  0  0  0  0
   28.1617   18.4656    9.6775 H   0  0  0  0  0  0  0  0  0  0  0  0
   28.2910   18.6424    5.0678 H   0  0  0  0  0  0  0  0  0  0  0  0
   29.0751   17.6614    6.3566 H   0  0  0  0  0  0  0  0  0  0  0  0
   28.9552   17.0164    3.3695 H   0  0  0  0  0  0  0  0  0  0  0  0
   30.4040   17.5116    4.3208 H   0  0  0  0  0  0  0  0  0  0  0  0
   29.8967    9.7194    8.2883 H   0  0  0  0  0  0  0  0  0  0  0  0
  1  2  1  0
  2  3  1  0
  3  4  2  0
  4  5  1  0
  5  6  1  0
  6  7  2  0
  6  8  2  0
  6  9  1  0
  9 10  2  0
 10 11  1  0
 11 12  2  0
 12 13  1  0
 13 14  2  0
 13 15  1  0
 15 16  1  0
 16 17  2  0
 16 18  1  0
 18 19  1  0
 19 20  2  0
 20 21  1  0
 21 22  2  0
 22 23  1  0
 23 24  1  0
 24 25  1  0
 25 26  1  0
 26 27  2  0
 26 28  1  0
 28 29  1  0
 29 30  2  0
 22 31  1  0
 31 32  2  0
 15 33  1  0
 33 34  1  0
 34 35  1  0
  5 36  1  0
 36 37  2  0
 37  3  1  0
 14  9  1  0
 32 19  1  0
 35 12  1  0
 29 23  1  0
  1 38  1  0
  1 39  1  0
  1 40  1  0
  2 41  1  0
  2 42  1  0
  4 43  1  0
 10 44  1  0
 11 45  1  0
 14 46  1  0
 15 47  1  1
 18 48  1  0
 20 49  1  0
 21 50  1  0
 23 51  1  6
 24 52  1  0
 24 53  1  0
 25 54  1  0
 25 55  1  0
 28 56  1  0
 31 57  1  0
 32 58  1  0
 34 59  1  0
 34 60  1  0
 35 61  1  0
 35 62  1  0
 36 63  1  0
M  END
>  <meeko>  (560) 
{"is_sidechain": [true], "free_energy": -12.11, "intermolecular_energy": 0.0, "internal_energy": -12.11, "cluster_size": 20, "cluster_id": 1, "rank_in_cluster": 1}

>  <_RMSD_MCS_to_ref>  (560) 
1.2092444955425676

$$$$
ligand
     RDKit          3D

 53 57  0  0  0  0  0  0  0  0999 V2000
   24.8540    9.4020    7.6050 C   0  0  0  0  0  0  0  0  0  0  0  0
   25.5230   10.7550    7.4270 C   0  0  0  0  0  0  0  0  0  0  0  0
   26.9930   10.6900    7.6530 C   0  0  0  0  0  0  0  0  0  0  0  0
   27.8610   11.6980    8.0270 C   0  0  0  0  0  0  0  0  0  0  0  0
   29.0750   11.0780    8.1170 N   0  0  0  0  0  0  0  0  0  0  0  0
   30.5610   11.8500    8.2940 S   0  0  0  0  0  6  0  0  0  0  0  0
   31.4560   11.1480    7.3940 O   0  0  0  0  0  0  0  0  0  0  0  0
   30.7980   11.8810    9.7250 O   0  0  0  0  0  0  0  0  0  0  0  0
   30.3480   13.3730    7.7550 O   0  0  0  0  0  0  0  0  0  0  0  0
   29.3770   14.1900    8.2620 C   0  0  0  0  0  0  0  0  0  0  0  0
   29.3950   14.8380    9.4810 C   0  0  0  0  0  0  0  0  0  0  0  0
   28.3950   15.6370    9.9240 N   0  0  0  0  0  0  0  0  0  0  0  0
   27.2940   15.8350    9.1520 C   0  0  0  0  0  0  0  0  0  0  0  0
   26.2180   16.6580    9.5490 C   0  0  0  0  0  0  0  0  0  0  0  0
   26.1910   17.3530   10.8290 C   0  0  0  0  0  0  0  0  0  0  0  0
   25.1130   17.5550   11.6630 C   0  0  0  0  0  0  0  0  0  0  0  0
   25.6250   18.2690   12.7040 N   0  0  0  0  0  0  0  0  0  0  0  0
   24.9350   18.6940   13.9070 C   0  0  1  0  0  0  0  0  0  0  0  0
   25.4060   17.9800   15.1750 C   0  0  0  0  0  0  0  0  0  0  0  0
   26.7430   18.5070   15.6760 C   0  0  0  0  0  0  0  0  0  0  0  0
   26.7340   20.0100   15.8100 C   0  0  0  0  0  0  0  0  0  0  0  0
   27.4270   20.5990   16.6350 O   0  0  0  0  0  0  0  0  0  0  0  0
   25.9260   20.7010   14.9440 N   0  0  0  0  0  0  0  0  0  0  0  0
   25.0010   20.1980   14.0610 C   0  0  0  0  0  0  0  0  0  0  0  0
   24.2600   20.9570   13.4360 O   0  0  0  0  0  0  0  0  0  0  0  0
   26.9330   18.5190   12.5300 N   0  0  0  0  0  0  0  0  0  0  0  0
   27.2910   17.9680   11.3790 N   0  0  0  0  0  0  0  0  0  0  0  0
   25.1120   16.8480    8.6950 C   0  0  0  0  0  0  0  0  0  0  0  0
   25.0470   16.2230    7.4570 C   0  0  0  0  0  0  0  0  0  0  0  0
   26.0920   15.4030    7.0550 C   0  0  0  0  0  0  0  0  0  0  0  0
   27.2070   15.2090    7.8850 C   0  0  0  0  0  0  0  0  0  0  0  0
   28.2610   14.3850    7.4590 C   0  0  0  0  0  0  0  0  0  0  0  0
   28.9420    9.7830    7.7320 C   0  0  0  0  0  0  0  0  0  0  0  0
   27.6820    9.5080    7.4660 N   0  0  0  0  0  0  0  0  0  0  0  0
   24.7464    9.1845    8.6779 H   0  0  0  0  0  0  0  0  0  0  0  0
   23.8606    9.4192    7.1330 H   0  0  0  0  0  0  0  0  0  0  0  0
   25.4708    8.6230    7.1330 H   0  0  0  0  0  0  0  0  0  0  0  0
   25.3375   11.1097    6.4024 H   0  0  0  0  0  0  0  0  0  0  0  0
   25.0970   11.4428    8.1723 H   0  0  0  0  0  0  0  0  0  0  0  0
   27.6278   12.7573    8.2103 H   0  0  0  0  0  0  0  0  0  0  0  0
   30.2720   14.6973   10.1299 H   0  0  0  0  0  0  0  0  0  0  0  0
   24.0759   17.2170   11.5207 H   0  0  0  0  0  0  0  0  0  0  0  0
   23.8838   18.3966   13.7781 H   0  0  0  0  0  0  0  0  0  0  0  0
   24.6519   18.1248   15.9626 H   0  0  0  0  0  0  0  0  0  0  0  0
   25.5357   16.9152   14.9314 H   0  0  0  0  0  0  0  0  0  0  0  0
   26.9558   18.0624   16.6594 H   0  0  0  0  0  0  0  0  0  0  0  0
   27.5167   18.2320   14.9441 H   0  0  0  0  0  0  0  0  0  0  0  0
   26.0249   21.7262   14.9570 H   0  0  0  0  0  0  0  0  0  0  0  0
   24.2874   17.5020    9.0149 H   0  0  0  0  0  0  0  0  0  0  0  0
   24.1767   16.3761    6.8019 H   0  0  0  0  0  0  0  0  0  0  0  0
   26.0460   14.9008    6.0774 H   0  0  0  0  0  0  0  0  0  0  0  0
   28.2021   13.8888    6.4790 H   0  0  0  0  0  0  0  0  0  0  0  0
   29.7708    9.0640    7.6533 H   0  0  0  0  0  0  0  0  0  0  0  0
  1  2  1  0
  2  3  1  0
  3  4  2  0
  4  5  1  0
  5  6  1  0
  6  7  2  0
  6  8  2  0
  6  9  1  0
  9 10  1  0
 10 11  2  0
 11 12  1  0
 12 13  2  0
 13 14  1  0
 14 15  1  0
 15 16  2  0
 16 17  1  0
 17 18  1  0
 18 19  1  0
 19 20  1  0
 20 21  1  0
 21 22  2  0
 21 23  1  0
 23 24  1  0
 24 25  2  0
 17 26  1  0
 26 27  2  0
 14 28  2  0
 28 29  1  0
 29 30  2  0
 30 31  1  0
 31 32  2  0
  5 33  1  0
 33 34  2  0
 34  3  1  0
 32 10  1  0
 31 13  1  0
 27 15  1  0
 24 18  1  0
  1 35  1  0
  1 36  1  0
  1 37  1  0
  2 38  1  0
  2 39  1  0
  4 40  1  0
 11 41  1  0
 16 42  1  0
 18 43  1  6
 19 44  1  0
 19 45  1  0
 20 46  1  0
 20 47  1  0
 23 48  1  0
 28 49  1  0
 29 50  1  0
 30 51  1  0
 32 52  1  0
 33 53  1  0
M  END
>  <meeko>  (561) 
{"is_sidechain": [true], "free_energy": -12.11, "intermolecular_energy": 0.0, "internal_energy": -12.11, "cluster_size": 20, "cluster_id": 1, "rank_in_cluster": 1}

>  <_RMSD_MCS_to_ref>  (561) 
0.7633686309160642

$$$$
ligand
     RDKit          3D

 59 64  0  0  0  0  0  0  0  0999 V2000
   24.8540    9.4020    7.6050 C   0  0  0  0  0  0  0  0  0  0  0  0
   25.5230   10.7550    7.4270 C   0  0  0  0  0  0  0  0  0  0  0  0
   25.0650   11.4520    6.1950 C   0  0  0  0  0  0  0  0  0  0  0  0
   25.4310   12.6940    5.7150 C   0  0  0  0  0  0  0  0  0  0  0  0
   24.7170   12.8290    4.5570 N   0  0  0  0  0  0  0  0  0  0  0  0
   24.8230   14.1210    3.4750 S   0  0  0  0  0  6  0  0  0  0  0  0
   25.0930   13.5030    2.1870 O   0  0  0  0  0  0  0  0  0  0  0  0
   23.5740   14.8400    3.6810 O   0  0  0  0  0  0  0  0  0  0  0  0
   26.1420   15.1650    3.8920 C   0  0  0  0  0  0  0  0  0  0  0  0
   27.0550   15.4570    2.9390 C   0  0  0  0  0  0  0  0  0  0  0  0
   28.1980   16.3140    3.2220 C   0  0  0  0  0  0  0  0  0  0  0  0
   28.3420   16.8170    4.4590 C   0  0  0  0  0  0  0  0  0  0  0  0
   27.3980   16.5040    5.4330 N   0  0  0  0  0  0  0  0  0  0  0  0
   27.3320   16.9020    6.7470 C   0  0  0  0  0  0  0  0  0  0  0  0
   26.1950   16.3130    7.2590 C   0  0  0  0  0  0  0  0  0  0  0  0
   25.6620   16.4400    8.6080 C   0  0  0  0  0  0  0  0  0  0  0  0
   24.5940   15.6380    9.0740 C   0  0  0  0  0  0  0  0  0  0  0  0
   24.1070   15.7670   10.3810 C   0  0  0  0  0  0  0  0  0  0  0  0
   24.7060   16.7080   11.1950 C   0  0  0  0  0  0  0  0  0  0  0  0
   25.7570   17.5090   10.7650 C   0  0  0  0  0  0  0  0  0  0  0  0
   26.2440   17.3860    9.4750 C   0  0  0  0  0  0  0  0  0  0  0  0
   26.2100   18.4010   11.8680 C   0  0  0  0  0  0  0  0  0  0  0  0
   25.2500   18.1090   12.9250 N   0  0  0  0  0  0  0  0  0  0  0  0
   25.4440   18.6100   14.2800 C   0  0  1  0  0  0  0  0  0  0  0  0
   26.6030   17.9420   15.0220 C   0  0  0  0  0  0  0  0  0  0  0  0
   26.6770   18.4910   16.4380 C   0  0  0  0  0  0  0  0  0  0  0  0
   26.8230   19.9950   16.4360 C   0  0  0  0  0  0  0  0  0  0  0  0
   27.3170   20.6060   17.3800 O   0  0  0  0  0  0  0  0  0  0  0  0
   26.3010   20.6630   15.3570 N   0  0  0  0  0  0  0  0  0  0  0  0
   25.6080   20.1390   14.2900 C   0  0  0  0  0  0  0  0  0  0  0  0
   25.0760   20.8850   13.4700 O   0  0  0  0  0  0  0  0  0  0  0  0
   24.4170   17.0520   12.5910 C   0  0  0  0  0  0  0  0  0  0  0  0
   23.6040   16.4770   13.2890 O   0  0  0  0  0  0  0  0  0  0  0  0
   25.5750   15.5550    6.2910 N   0  0  0  0  0  0  0  0  0  0  0  0
   26.2960   15.6870    5.2020 C   0  0  0  0  0  0  0  0  0  0  0  0
   23.9820   11.7040    4.3540 C   0  0  0  0  0  0  0  0  0  0  0  0
   24.1590   10.8500    5.3420 N   0  0  0  0  0  0  0  0  0  0  0  0
   24.7464    9.1845    8.6779 H   0  0  0  0  0  0  0  0  0  0  0  0
   23.8606    9.4192    7.1330 H   0  0  0  0  0  0  0  0  0  0  0  0
   25.4708    8.6230    7.1330 H   0  0  0  0  0  0  0  0  0  0  0  0
   25.2870   11.3839    8.2981 H   0  0  0  0  0  0  0  0  0  0  0  0
   26.6062   10.5862    7.3360 H   0  0  0  0  0  0  0  0  0  0  0  0
   26.1357   13.4106    6.1620 H   0  0  0  0  0  0  0  0  0  0  0  0
   26.9322   15.0388    1.9290 H   0  0  0  0  0  0  0  0  0  0  0  0
   28.9314   16.5455    2.4355 H   0  0  0  0  0  0  0  0  0  0  0  0
   29.1953   17.4682    4.6995 H   0  0  0  0  0  0  0  0  0  0  0  0
   28.0393   17.5548    7.2796 H   0  0  0  0  0  0  0  0  0  0  0  0
   24.1378   14.8999    8.3979 H   0  0  0  0  0  0  0  0  0  0  0  0
   23.2783   15.1421   10.7454 H   0  0  0  0  0  0  0  0  0  0  0  0
   27.0752   18.0191    9.1310 H   0  0  0  0  0  0  0  0  0  0  0  0
   27.2348   18.1548   12.1828 H   0  0  0  0  0  0  0  0  0  0  0  0
   26.2424   19.4640   11.5868 H   0  0  0  0  0  0  0  0  0  0  0  0
   24.5287   18.3423   14.8283 H   0  0  0  0  0  0  0  0  0  0  0  0
   26.4385   16.8550   15.0576 H   0  0  0  0  0  0  0  0  0  0  0  0
   27.5462   18.1513   14.4962 H   0  0  0  0  0  0  0  0  0  0  0  0
   25.7562   18.2210   16.9757 H   0  0  0  0  0  0  0  0  0  0  0  0
   27.5580   18.0570   16.9334 H   0  0  0  0  0  0  0  0  0  0  0  0
   26.4458   21.6827   15.3442 H   0  0  0  0  0  0  0  0  0  0  0  0
   23.3298   11.5303    3.4854 H   0  0  0  0  0  0  0  0  0  0  0  0
  1  2  1  0
  2  3  1  0
  3  4  2  0
  4  5  1  0
  5  6  1  0
  6  7  2  0
  6  8  2  0
  6  9  1  0
  9 10  2  0
 10 11  1  0
 11 12  2  0
 12 13  1  0
 13 14  1  0
 14 15  2  0
 15 16  1  0
 16 17  2  0
 17 18  1  0
 18 19  2  0
 19 20  1  0
 20 21  2  0
 20 22  1  0
 22 23  1  0
 23 24  1  0
 24 25  1  0
 25 26  1  0
 26 27  1  0
 27 28  2  0
 27 29  1  0
 29 30  1  0
 30 31  2  0
 23 32  1  0
 32 33  2  0
 15 34  1  0
 34 35  2  0
  5 36  1  0
 36 37  2  0
 37  3  1  0
 35  9  1  0
 35 13  1  0
 21 16  1  0
 30 24  1  0
 32 19  1  0
  1 38  1  0
  1 39  1  0
  1 40  1  0
  2 41  1  0
  2 42  1  0
  4 43  1  0
 10 44  1  0
 11 45  1  0
 12 46  1  0
 14 47  1  0
 17 48  1  0
 18 49  1  0
 21 50  1  0
 22 51  1  0
 22 52  1  0
 24 53  1  1
 25 54  1  0
 25 55  1  0
 26 56  1  0
 26 57  1  0
 29 58  1  0
 36 59  1  0
M  END
>  <meeko>  (562) 
{"is_sidechain": [true], "free_energy": -12.1, "intermolecular_energy": 0.0, "internal_energy": -12.1, "cluster_size": 14, "cluster_id": 1, "rank_in_cluster": 1}

>  <_RMSD_MCS_to_ref>  (562) 
0.5927521498156804

$$$$
ligand
     RDKit          3D

 63 67  0  0  0  0  0  0  0  0999 V2000
   24.8710    9.6160    7.7820 C   0  0  0  0  0  0  0  0  0  0  0  0
   25.4240   10.9650    7.3490 C   0  0  0  0  0  0  0  0  0  0  0  0
   24.9920   11.3330    5.9730 C   0  0  0  0  0  0  0  0  0  0  0  0
   23.9780   12.1820    5.5790 C   0  0  0  0  0  0  0  0  0  0  0  0
   24.0120   12.1330    4.2140 N   0  0  0  0  0  0  0  0  0  0  0  0
   23.1190   13.0990    3.1710 S   0  0  0  0  0  6  0  0  0  0  0  0
   23.3810   12.5920    1.8380 O   0  0  0  0  0  0  0  0  0  0  0  0
   21.7790   13.1550    3.7250 O   0  0  0  0  0  0  0  0  0  0  0  0
   23.8660   14.6960    3.3380 C   0  0  0  0  0  0  0  0  0  0  0  0
   23.5330   15.7110    2.4400 C   0  0  0  0  0  0  0  0  0  0  0  0
   24.1130   16.9700    2.5850 C   0  0  0  0  0  0  0  0  0  0  0  0
   25.0170   17.2180    3.6280 C   0  0  0  0  0  0  0  0  0  0  0  0
   25.3720   16.1880    4.5210 C   0  0  0  0  0  0  0  0  0  0  0  0
   24.7940   14.9190    4.3580 C   0  0  0  0  0  0  0  0  0  0  0  0
   26.3650   16.4400    5.6510 C   0  0  2  0  0  0  0  0  0  0  0  0
   25.7470   16.3000    7.0730 C   0  0  0  0  0  0  0  0  0  0  0  0
   24.8890   15.4630    7.3450 O   0  0  0  0  0  0  0  0  0  0  0  0
   26.3260   17.1930    7.9660 N   0  0  0  0  0  0  0  0  0  0  0  0
   26.0380   17.3750    9.3300 C   0  0  0  0  0  0  0  0  0  0  0  0
   26.8170   18.3020   10.0290 C   0  0  0  0  0  0  0  0  0  0  0  0
   26.5930   18.5460   11.3880 C   0  0  0  0  0  0  0  0  0  0  0  0
   25.5730   17.8750   12.0750 C   0  0  0  0  0  0  0  0  0  0  0  0
   25.3200   18.0990   13.5560 C   0  0  1  0  0  0  0  0  0  0  0  0
   26.2580   17.2160   14.3870 C   0  0  0  0  0  0  0  0  0  0  0  0
   25.9560   17.3910   15.8660 C   0  0  0  0  0  0  0  0  0  0  0  0
   26.0720   18.8370   16.2750 C   0  0  0  0  0  0  0  0  0  0  0  0
   26.3410   19.1760   17.4240 O   0  0  0  0  0  0  0  0  0  0  0  0
   25.8010   19.7700   15.3070 N   0  0  0  0  0  0  0  0  0  0  0  0
   25.4420   19.5590   13.9950 C   0  0  0  0  0  0  0  0  0  0  0  0
   25.1910   20.5200   13.2720 O   0  0  0  0  0  0  0  0  0  0  0  0
   24.8000   16.9420   11.3700 C   0  0  0  0  0  0  0  0  0  0  0  0
   25.0290   16.6960   10.0100 C   0  0  0  0  0  0  0  0  0  0  0  0
   27.0720   17.6910    5.5180 O   0  0  0  0  0  0  0  0  0  0  0  0
   26.1990   18.7710    5.1690 C   0  0  0  0  0  0  0  0  0  0  0  0
   25.6680   18.5700    3.7570 C   0  0  0  0  0  0  0  0  0  0  0  0
   25.0400   11.3360    3.8230 C   0  0  0  0  0  0  0  0  0  0  0  0
   25.6450   10.8160    4.8710 N   0  0  0  0  0  0  0  0  0  0  0  0
   24.8497    9.5640    8.8806 H   0  0  0  0  0  0  0  0  0  0  0  0
   23.8507    9.4948    7.3893 H   0  0  0  0  0  0  0  0  0  0  0  0
   25.5127    8.8135    7.3893 H   0  0  0  0  0  0  0  0  0  0  0  0
   25.0691   11.7350    8.0498 H   0  0  0  0  0  0  0  0  0  0  0  0
   26.5219   10.8972    7.3520 H   0  0  0  0  0  0  0  0  0  0  0  0
   23.2980   12.7648    6.2177 H   0  0  0  0  0  0  0  0  0  0  0  0
   22.8193   15.5192    1.6252 H   0  0  0  0  0  0  0  0  0  0  0  0
   23.8603   17.7735    1.8775 H   0  0  0  0  0  0  0  0  0  0  0  0
   25.0726   14.0982    5.0352 H   0  0  0  0  0  0  0  0  0  0  0  0
   27.1029   15.6312    5.5447 H   0  0  0  0  0  0  0  0  0  0  0  0
   27.0618   17.8006    7.5784 H   0  0  0  0  0  0  0  0  0  0  0  0
   27.6158   18.8461    9.5038 H   0  0  0  0  0  0  0  0  0  0  0  0
   27.2238   19.2717   11.9224 H   0  0  0  0  0  0  0  0  0  0  0  0
   24.2719   17.8167   13.7341 H   0  0  0  0  0  0  0  0  0  0  0  0
   26.1110   16.1625   14.1067 H   0  0  0  0  0  0  0  0  0  0  0  0
   27.2999   17.5101   14.1924 H   0  0  0  0  0  0  0  0  0  0  0  0
   24.9328   17.0413   16.0678 H   0  0  0  0  0  0  0  0  0  0  0  0
   26.6854   16.8044   16.4438 H   0  0  0  0  0  0  0  0  0  0  0  0
   25.8757   20.7548   15.5992 H   0  0  0  0  0  0  0  0  0  0  0  0
   24.0016   16.3948   11.8925 H   0  0  0  0  0  0  0  0  0  0  0  0
   24.4082   15.9620    9.4754 H   0  0  0  0  0  0  0  0  0  0  0  0
   25.3561   18.8018    5.8751 H   0  0  0  0  0  0  0  0  0  0  0  0
   26.7567   19.7180    5.2156 H   0  0  0  0  0  0  0  0  0  0  0  0
   24.9270   19.3518    3.5338 H   0  0  0  0  0  0  0  0  0  0  0  0
   26.5071   18.6309    3.0484 H   0  0  0  0  0  0  0  0  0  0  0  0
   25.3271   11.1508    2.7774 H   0  0  0  0  0  0  0  0  0  0  0  0
  1  2  1  0
  2  3  1  0
  3  4  2  0
  4  5  1  0
  5  6  1  0
  6  7  2  0
  6  8  2  0
  6  9  1  0
  9 10  2  0
 10 11  1  0
 11 12  2  0
 12 13  1  0
 13 14  2  0
 13 15  1  0
 15 16  1  0
 16 17  2  0
 16 18  1  0
 18 19  1  0
 19 20  2  0
 20 21  1  0
 21 22  2  0
 22 23  1  0
 23 24  1  0
 24 25  1  0
 25 26  1  0
 26 27  2  0
 26 28  1  0
 28 29  1  0
 29 30  2  0
 22 31  1  0
 31 32  2  0
 15 33  1  0
 33 34  1  0
 34 35  1  0
  5 36  1  0
 36 37  2  0
 37  3  1  0
 14  9  1  0
 32 19  1  0
 35 12  1  0
 29 23  1  0
  1 38  1  0
  1 39  1  0
  1 40  1  0
  2 41  1  0
  2 42  1  0
  4 43  1  0
 10 44  1  0
 11 45  1  0
 14 46  1  0
 15 47  1  1
 18 48  1  0
 20 49  1  0
 21 50  1  0
 23 51  1  6
 24 52  1  0
 24 53  1  0
 25 54  1  0
 25 55  1  0
 28 56  1  0
 31 57  1  0
 32 58  1  0
 34 59  1  0
 34 60  1  0
 35 61  1  0
 35 62  1  0
 36 63  1  0
M  END
>  <meeko>  (563) 
{"is_sidechain": [true], "free_energy": -12.1, "intermolecular_energy": 0.0, "internal_energy": -12.1, "cluster_size": 20, "cluster_id": 1, "rank_in_cluster": 1}

>  <_RMSD_MCS_to_ref>  (563) 
1.1069964430837167

$$$$
ligand
     RDKit          3D

 57 61  0  0  0  0  0  0  0  0999 V2000
   24.8710    9.6160    7.7820 C   0  0  0  0  0  0  0  0  0  0  0  0
   25.4240   10.9650    7.3490 C   0  0  0  0  0  0  0  0  0  0  0  0
   26.8880   10.9160    7.0810 C   0  0  0  0  0  0  0  0  0  0  0  0
   27.8590   11.8400    7.4210 C   0  0  0  0  0  0  0  0  0  0  0  0
   29.0150   11.3070    6.9270 N   0  0  0  0  0  0  0  0  0  0  0  0
   30.5590   11.8980    7.2030 S   0  0  0  0  0  6  0  0  0  0  0  0
   30.6840   13.1610    6.5070 O   0  0  0  0  0  0  0  0  0  0  0  0
   31.4380   10.7760    6.9340 O   0  0  0  0  0  0  0  0  0  0  0  0
   30.8370   12.2790    8.8800 C   0  0  0  0  0  0  0  0  0  0  0  0
   31.9510   11.7420    9.6040 C   0  0  0  0  0  0  0  0  0  0  0  0
   31.9980   12.1950   10.9010 C   0  0  0  0  0  0  0  0  0  0  0  0
   30.7190   13.2690   11.2440 S   0  0  0  0  0  0  0  0  0  0  0  0
   30.0750   13.1430    9.6530 C   0  0  0  0  0  0  0  0  0  0  0  0
   28.8650   13.8700    9.2720 C   0  0  0  0  0  0  0  0  0  0  0  0
   28.8580   14.5590    8.2620 O   0  0  0  0  0  0  0  0  0  0  0  0
   27.7800   13.7170   10.1140 N   0  0  0  0  0  0  0  0  0  0  0  0
   26.4420   14.1450    9.9550 C   0  0  0  0  0  0  0  0  0  0  0  0
   25.6980   13.4700    8.9650 C   0  0  0  0  0  0  0  0  0  0  0  0
   24.3620   13.8070    8.6730 C   0  0  0  0  0  0  0  0  0  0  0  0
   23.7350   14.8440    9.3500 C   0  0  0  0  0  0  0  0  0  0  0  0
   24.4770   15.5090   10.3070 C   0  0  0  0  0  0  0  0  0  0  0  0
   25.8040   15.1780   10.6300 C   0  0  0  0  0  0  0  0  0  0  0  0
   26.2700   16.1220   11.6890 C   0  0  0  0  0  0  0  0  0  0  0  0
   25.1530   17.0390   11.8590 N   0  0  0  0  0  0  0  0  0  0  0  0
   25.1260   18.0440   12.9200 C   0  0  1  0  0  0  0  0  0  0  0  0
   25.3350   17.3880   14.2860 C   0  0  0  0  0  0  0  0  0  0  0  0
   25.4600   18.4520   15.3620 C   0  0  0  0  0  0  0  0  0  0  0  0
   26.6290   19.3570   15.0660 C   0  0  0  0  0  0  0  0  0  0  0  0
   27.2660   19.9130   15.9560 O   0  0  0  0  0  0  0  0  0  0  0  0
   26.8870   19.5890   13.7400 N   0  0  0  0  0  0  0  0  0  0  0  0
   26.1580   19.1580   12.6570 C   0  0  0  0  0  0  0  0  0  0  0  0
   26.3150   19.6720   11.5500 O   0  0  0  0  0  0  0  0  0  0  0  0
   24.0550   16.6590   11.1210 C   0  0  0  0  0  0  0  0  0  0  0  0
   22.9410   17.1430   11.1280 O   0  0  0  0  0  0  0  0  0  0  0  0
   28.7470   10.0880    6.3880 C   0  0  0  0  0  0  0  0  0  0  0  0
   27.4540    9.8320    6.4330 N   0  0  0  0  0  0  0  0  0  0  0  0
   24.8497    9.5640    8.8806 H   0  0  0  0  0  0  0  0  0  0  0  0
   23.8507    9.4948    7.3893 H   0  0  0  0  0  0  0  0  0  0  0  0
   25.5127    8.8135    7.3893 H   0  0  0  0  0  0  0  0  0  0  0  0
   24.9068   11.2812    6.4312 H   0  0  0  0  0  0  0  0  0  0  0  0
   25.2559   11.6770    8.1705 H   0  0  0  0  0  0  0  0  0  0  0  0
   27.7297   12.7874    7.9648 H   0  0  0  0  0  0  0  0  0  0  0  0
   32.6850   11.0464    9.1711 H   0  0  0  0  0  0  0  0  0  0  0  0
   32.7677   11.9002   11.6295 H   0  0  0  0  0  0  0  0  0  0  0  0
   27.9760   13.2144   10.9914 H   0  0  0  0  0  0  0  0  0  0  0  0
   26.1764   12.6543    8.4030 H   0  0  0  0  0  0  0  0  0  0  0  0
   23.8121   13.2450    7.9038 H   0  0  0  0  0  0  0  0  0  0  0  0
   22.6934   15.1239    9.1340 H   0  0  0  0  0  0  0  0  0  0  0  0
   26.4815   15.5854   12.6257 H   0  0  0  0  0  0  0  0  0  0  0  0
   27.2030   16.6370   11.4165 H   0  0  0  0  0  0  0  0  0  0  0  0
   24.1333   18.5178   12.9243 H   0  0  0  0  0  0  0  0  0  0  0  0
   24.4760   16.7396   14.5135 H   0  0  0  0  0  0  0  0  0  0  0  0
   26.2584   16.7908   14.2611 H   0  0  0  0  0  0  0  0  0  0  0  0
   24.5366   19.0491   15.3916 H   0  0  0  0  0  0  0  0  0  0  0  0
   25.6220   17.9625   16.3337 H   0  0  0  0  0  0  0  0  0  0  0  0
   27.7241   20.1515   13.5307 H   0  0  0  0  0  0  0  0  0  0  0  0
   29.5049    9.4082    5.9714 H   0  0  0  0  0  0  0  0  0  0  0  0
  1  2  1  0
  2  3  1  0
  3  4  2  0
  4  5  1  0
  5  6  1  0
  6  7  2  0
  6  8  2  0
  6  9  1  0
  9 10  1  0
 10 11  2  0
 11 12  1  0
 12 13  1  0
 13 14  1  0
 14 15  2  0
 14 16  1  0
 16 17  1  0
 17 18  2  0
 18 19  1  0
 19 20  2  0
 20 21  1  0
 21 22  2  0
 22 23  1  0
 23 24  1  0
 24 25  1  0
 25 26  1  0
 26 27  1  0
 27 28  1  0
 28 29  2  0
 28 30  1  0
 30 31  1  0
 31 32  2  0
 24 33  1  0
 33 34  2  0
  5 35  1  0
 35 36  2  0
 36  3  1  0
 13  9  2  0
 22 17  1  0
 31 25  1  0
 33 21  1  0
  1 37  1  0
  1 38  1  0
  1 39  1  0
  2 40  1  0
  2 41  1  0
  4 42  1  0
 10 43  1  0
 11 44  1  0
 16 45  1  0
 18 46  1  0
 19 47  1  0
 20 48  1  0
 23 49  1  0
 23 50  1  0
 25 51  1  1
 26 52  1  0
 26 53  1  0
 27 54  1  0
 27 55  1  0
 30 56  1  0
 35 57  1  0
M  END
>  <meeko>  (564) 
{"is_sidechain": [true], "free_energy": -12.1, "intermolecular_energy": 0.0, "internal_energy": -12.1, "cluster_size": 13, "cluster_id": 1, "rank_in_cluster": 1}

>  <_RMSD_MCS_to_ref>  (564) 
1.8853860347419564

$$$$
ligand
     RDKit          3D

 62 67  0  0  0  0  0  0  0  0999 V2000
   24.8710    9.6170    7.7820 C   0  0  0  0  0  0  0  0  0  0  0  0
   25.4240   10.9640    7.3490 C   0  0  0  0  0  0  0  0  0  0  0  0
   26.8440   11.1530    7.7580 C   0  0  0  0  0  0  0  0  0  0  0  0
   27.3950   12.1530    8.5340 C   0  0  0  0  0  0  0  0  0  0  0  0
   28.7290   11.8660    8.5560 N   0  0  0  0  0  0  0  0  0  0  0  0
   29.8850   12.6300    9.5190 S   0  0  0  0  0  6  0  0  0  0  0  0
   29.6350   12.1390   10.8610 O   0  0  0  0  0  0  0  0  0  0  0  0
   31.1410   12.3610    8.8460 O   0  0  0  0  0  0  0  0  0  0  0  0
   29.6250   14.2480    9.4700 O   0  0  0  0  0  0  0  0  0  0  0  0
   28.5030   14.7340    8.8450 C   0  0  0  0  0  0  0  0  0  0  0  0
   27.3530   14.8930    9.6250 C   0  0  0  0  0  0  0  0  0  0  0  0
   26.1740   15.3850    9.0560 C   0  0  0  0  0  0  0  0  0  0  0  0
   24.9770   15.5840    9.8740 C   0  0  0  0  0  0  0  0  0  0  0  0
   23.7240   15.0910    9.4620 C   0  0  0  0  0  0  0  0  0  0  0  0
   22.5640   15.2780   10.2400 C   0  0  0  0  0  0  0  0  0  0  0  0
   22.6290   15.9620   11.4530 C   0  0  0  0  0  0  0  0  0  0  0  0
   23.8640   16.4370   11.8470 C   0  0  0  0  0  0  0  0  0  0  0  0
   25.0210   16.2630   11.0850 C   0  0  0  0  0  0  0  0  0  0  0  0
   26.1820   16.8960   11.7810 C   0  0  0  0  0  0  0  0  0  0  0  0
   25.5950   17.3450   13.0360 N   0  0  0  0  0  0  0  0  0  0  0  0
   26.3090   18.1730   14.0000 C   0  0  1  0  0  0  0  0  0  0  0  0
   25.7440   19.5880   14.0790 C   0  0  0  0  0  0  0  0  0  0  0  0
   26.5910   20.4180   15.0320 C   0  0  0  0  0  0  0  0  0  0  0  0
   26.6820   19.7680   16.3920 C   0  0  0  0  0  0  0  0  0  0  0  0
   26.7460   20.4210   17.4290 O   0  0  0  0  0  0  0  0  0  0  0  0
   26.7180   18.3970   16.4180 N   0  0  0  0  0  0  0  0  0  0  0  0
   26.3140   17.5530   15.4080 C   0  0  0  0  0  0  0  0  0  0  0  0
   25.9870   16.3960   15.6600 O   0  0  0  0  0  0  0  0  0  0  0  0
   24.2230   17.1640   13.0690 C   0  0  0  0  0  0  0  0  0  0  0  0
   23.4410   17.5090   13.9330 O   0  0  0  0  0  0  0  0  0  0  0  0
   26.1630   15.6900    7.6870 C   0  0  0  0  0  0  0  0  0  0  0  0
   27.2960   15.4900    6.8810 C   0  0  0  0  0  0  0  0  0  0  0  0
   27.2610   15.7650    5.5080 C   0  0  0  0  0  0  0  0  0  0  0  0
   28.3920   15.5240    4.7470 C   0  0  0  0  0  0  0  0  0  0  0  0
   29.5390   15.0340    5.2520 N   0  0  0  0  0  0  0  0  0  0  0  0
   29.5600   14.7810    6.5830 C   0  0  0  0  0  0  0  0  0  0  0  0
   28.4830   14.9930    7.4570 C   0  0  0  0  0  0  0  0  0  0  0  0
   28.9470   10.7130    7.8720 C   0  0  0  0  0  0  0  0  0  0  0  0
   27.8200   10.2550    7.3650 N   0  0  0  0  0  0  0  0  0  0  0  0
   24.8498    9.5653    8.8806 H   0  0  0  0  0  0  0  0  0  0  0  0
   23.8505    9.4962    7.3895 H   0  0  0  0  0  0  0  0  0  0  0  0
   25.5122    8.8140    7.3895 H   0  0  0  0  0  0  0  0  0  0  0  0
   25.3593   11.0367    6.2533 H   0  0  0  0  0  0  0  0  0  0  0  0
   24.8264   11.7457    7.8408 H   0  0  0  0  0  0  0  0  0  0  0  0
   26.8766   12.9907    9.0234 H   0  0  0  0  0  0  0  0  0  0  0  0
   27.3760   14.6294   10.6927 H   0  0  0  0  0  0  0  0  0  0  0  0
   23.6488   14.5464    8.5092 H   0  0  0  0  0  0  0  0  0  0  0  0
   21.6004   14.8814    9.8877 H   0  0  0  0  0  0  0  0  0  0  0  0
   21.7325   16.1170   12.0713 H   0  0  0  0  0  0  0  0  0  0  0  0
   26.9853   16.1656   11.9574 H   0  0  0  0  0  0  0  0  0  0  0  0
   26.6496   17.7064   11.2025 H   0  0  0  0  0  0  0  0  0  0  0  0
   27.3439   18.2256   13.6309 H   0  0  0  0  0  0  0  0  0  0  0  0
   25.7609   20.0462   13.0791 H   0  0  0  0  0  0  0  0  0  0  0  0
   24.7079   19.5499   14.4466 H   0  0  0  0  0  0  0  0  0  0  0  0
   27.6038   20.5202   14.6151 H   0  0  0  0  0  0  0  0  0  0  0  0
   26.1174   21.4039   15.1490 H   0  0  0  0  0  0  0  0  0  0  0  0
   27.0821   17.9568   17.2751 H   0  0  0  0  0  0  0  0  0  0  0  0
   25.2461   16.0951    7.2341 H   0  0  0  0  0  0  0  0  0  0  0  0
   26.3491   16.1662    5.0417 H   0  0  0  0  0  0  0  0  0  0  0  0
   28.3508   15.7452    3.6703 H   0  0  0  0  0  0  0  0  0  0  0  0
   30.4908   14.3795    7.0102 H   0  0  0  0  0  0  0  0  0  0  0  0
   29.9280   10.2287    7.7572 H   0  0  0  0  0  0  0  0  0  0  0  0
  1  2  1  0
  2  3  1  0
  3  4  2  0
  4  5  1  0
  5  6  1  0
  6  7  2  0
  6  8  2  0
  6  9  1  0
  9 10  1  0
 10 11  2  0
 11 12  1  0
 12 13  1  0
 13 14  2  0
 14 15  1  0
 15 16  2  0
 16 17  1  0
 17 18  2  0
 18 19  1  0
 19 20  1  0
 20 21  1  0
 21 22  1  0
 22 23  1  0
 23 24  1  0
 24 25  2  0
 24 26  1  0
 26 27  1  0
 27 28  2  0
 20 29  1  0
 29 30  2  0
 12 31  2  0
 31 32  1  0
 32 33  2  0
 33 34  1  0
 34 35  2  0
 35 36  1  0
 36 37  2  0
  5 38  1  0
 38 39  2  0
 39  3  1  0
 37 10  1  0
 18 13  1  0
 27 21  1  0
 37 32  1  0
 29 17  1  0
  1 40  1  0
  1 41  1  0
  1 42  1  0
  2 43  1  0
  2 44  1  0
  4 45  1  0
 11 46  1  0
 14 47  1  0
 15 48  1  0
 16 49  1  0
 19 50  1  0
 19 51  1  0
 21 52  1  6
 22 53  1  0
 22 54  1  0
 23 55  1  0
 23 56  1  0
 26 57  1  0
 31 58  1  0
 33 59  1  0
 34 60  1  0
 36 61  1  0
 38 62  1  0
M  END
>  <meeko>  (565) 
{"is_sidechain": [true], "free_energy": -12.1, "intermolecular_energy": 0.0, "internal_energy": -12.1, "cluster_size": 12, "cluster_id": 1, "rank_in_cluster": 1}

>  <_RMSD_MCS_to_ref>  (565) 
1.9085834042847354

$$$$
ligand
     RDKit          3D

 60 65  0  0  0  0  0  0  0  0999 V2000
   24.8540    9.4020    7.6050 C   0  0  0  0  0  0  0  0  0  0  0  0
   25.5230   10.7550    7.4270 C   0  0  0  0  0  0  0  0  0  0  0  0
   27.0080   10.6550    7.4440 C   0  0  0  0  0  0  0  0  0  0  0  0
   27.9460   11.5930    7.0600 C   0  0  0  0  0  0  0  0  0  0  0  0
   29.1450   10.9860    7.3020 N   0  0  0  0  0  0  0  0  0  0  0  0
   30.6470   11.5820    6.8560 S   0  0  0  0  0  6  0  0  0  0  0  0
   31.6050   10.5650    7.2420 O   0  0  0  0  0  0  0  0  0  0  0  0
   30.5180   12.0770    5.5010 O   0  0  0  0  0  0  0  0  0  0  0  0
   31.0120   12.9590    7.8260 C   0  0  0  0  0  0  0  0  0  0  0  0
   32.2770   13.4180    8.1360 C   0  0  0  0  0  0  0  0  0  0  0  0
   32.1370   14.5070    8.9510 N   0  0  0  0  0  0  0  0  0  0  0  0
   30.8020   14.7580    9.1820 C   0  0  0  0  0  0  0  0  0  0  0  0
   30.2010   15.7530    9.9590 C   0  0  0  0  0  0  0  0  0  0  0  0
   28.8040   15.7800   10.0160 C   0  0  0  0  0  0  0  0  0  0  0  0
   28.0200   14.8550    9.3130 C   0  0  0  0  0  0  0  0  0  0  0  0
   26.5570   14.9110    9.3790 C   0  0  0  0  0  0  0  0  0  0  0  0
   25.7620   14.2500    8.4210 C   0  0  0  0  0  0  0  0  0  0  0  0
   24.3550   14.2860    8.4740 C   0  0  0  0  0  0  0  0  0  0  0  0
   23.7020   14.9880    9.4850 C   0  0  0  0  0  0  0  0  0  0  0  0
   24.4920   15.6410   10.4110 C   0  0  0  0  0  0  0  0  0  0  0  0
   25.8870   15.6160   10.3740 C   0  0  0  0  0  0  0  0  0  0  0  0
   26.4320   16.4150   11.5120 C   0  0  0  0  0  0  0  0  0  0  0  0
   25.2320   16.9700   12.1250 N   0  0  0  0  0  0  0  0  0  0  0  0
   25.2890   17.6490   13.4140 C   0  0  1  0  0  0  0  0  0  0  0  0
   26.1170   16.9100   14.4650 C   0  0  0  0  0  0  0  0  0  0  0  0
   26.0570   17.6700   15.7800 C   0  0  0  0  0  0  0  0  0  0  0  0
   26.5300   19.0950   15.6120 C   0  0  0  0  0  0  0  0  0  0  0  0
   26.9550   19.7580   16.5540 O   0  0  0  0  0  0  0  0  0  0  0  0
   26.3830   19.6500   14.3660 N   0  0  0  0  0  0  0  0  0  0  0  0
   25.7820   19.0960   13.2600 C   0  0  0  0  0  0  0  0  0  0  0  0
   25.5700   19.7830   12.2600 O   0  0  0  0  0  0  0  0  0  0  0  0
   24.0770   16.4510   11.5610 C   0  0  0  0  0  0  0  0  0  0  0  0
   22.9260   16.5970   11.9250 O   0  0  0  0  0  0  0  0  0  0  0  0
   28.6560   13.8680    8.5390 C   0  0  0  0  0  0  0  0  0  0  0  0
   30.0660   13.8040    8.4730 C   0  0  0  0  0  0  0  0  0  0  0  0
   28.9220    9.7320    7.7720 C   0  0  0  0  0  0  0  0  0  0  0  0
   27.6300    9.5010    7.8760 N   0  0  0  0  0  0  0  0  0  0  0  0
   24.7464    9.1845    8.6779 H   0  0  0  0  0  0  0  0  0  0  0  0
   23.8606    9.4192    7.1330 H   0  0  0  0  0  0  0  0  0  0  0  0
   25.4708    8.6230    7.1330 H   0  0  0  0  0  0  0  0  0  0  0  0
   25.2078   11.1819    6.4635 H   0  0  0  0  0  0  0  0  0  0  0  0
   25.2182   11.3954    8.2678 H   0  0  0  0  0  0  0  0  0  0  0  0
   27.7680   12.5991    6.6524 H   0  0  0  0  0  0  0  0  0  0  0  0
   33.2270   12.9851    7.7894 H   0  0  0  0  0  0  0  0  0  0  0  0
   32.9163   15.0594    9.3363 H   0  0  0  0  0  0  0  0  0  0  0  0
   30.8067   16.4898   10.5070 H   0  0  0  0  0  0  0  0  0  0  0  0
   28.3075   16.5471   10.6284 H   0  0  0  0  0  0  0  0  0  0  0  0
   26.2533   13.6914    7.6107 H   0  0  0  0  0  0  0  0  0  0  0  0
   23.7667   13.7554    7.7108 H   0  0  0  0  0  0  0  0  0  0  0  0
   22.6040   15.0208    9.5433 H   0  0  0  0  0  0  0  0  0  0  0  0
   26.9777   15.7739   12.2200 H   0  0  0  0  0  0  0  0  0  0  0  0
   27.1536   17.1831   11.1969 H   0  0  0  0  0  0  0  0  0  0  0  0
   24.2542   17.6583   13.7869 H   0  0  0  0  0  0  0  0  0  0  0  0
   25.7107   15.8977   14.6072 H   0  0  0  0  0  0  0  0  0  0  0  0
   27.1617   16.8405   14.1278 H   0  0  0  0  0  0  0  0  0  0  0  0
   25.0185   17.6775   16.1426 H   0  0  0  0  0  0  0  0  0  0  0  0
   26.7175   17.1676   16.5021 H   0  0  0  0  0  0  0  0  0  0  0  0
   26.7698   20.5968   14.2440 H   0  0  0  0  0  0  0  0  0  0  0  0
   28.0505   13.1394    7.9800 H   0  0  0  0  0  0  0  0  0  0  0  0
   29.7106    9.0098    8.0299 H   0  0  0  0  0  0  0  0  0  0  0  0
  1  2  1  0
  2  3  1  0
  3  4  2  0
  4  5  1  0
  5  6  1  0
  6  7  2  0
  6  8  2  0
  6  9  1  0
  9 10  2  0
 10 11  1  0
 11 12  1  0
 12 13  2  0
 13 14  1  0
 14 15  2  0
 15 16  1  0
 16 17  2  0
 17 18  1  0
 18 19  2  0
 19 20  1  0
 20 21  2  0
 21 22  1  0
 22 23  1  0
 23 24  1  0
 24 25  1  0
 25 26  1  0
 26 27  1  0
 27 28  2  0
 27 29  1  0
 29 30  1  0
 30 31  2  0
 23 32  1  0
 32 33  2  0
 15 34  1  0
 34 35  2  0
  5 36  1  0
 36 37  2  0
 37  3  1  0
 35  9  1  0
 35 12  1  0
 21 16  1  0
 30 24  1  0
 32 20  1  0
  1 38  1  0
  1 39  1  0
  1 40  1  0
  2 41  1  0
  2 42  1  0
  4 43  1  0
 10 44  1  0
 11 45  1  0
 13 46  1  0
 14 47  1  0
 17 48  1  0
 18 49  1  0
 19 50  1  0
 22 51  1  0
 22 52  1  0
 24 53  1  1
 25 54  1  0
 25 55  1  0
 26 56  1  0
 26 57  1  0
 29 58  1  0
 34 59  1  0
 36 60  1  0
M  END
>  <meeko>  (566) 
{"is_sidechain": [true], "free_energy": -12.09, "intermolecular_energy": 0.0, "internal_energy": -12.09, "cluster_size": 19, "cluster_id": 1, "rank_in_cluster": 1}

>  <_RMSD_MCS_to_ref>  (566) 
1.4689175530906349

$$$$
ligand
     RDKit          3D

 61 66  0  0  0  0  0  0  0  0999 V2000
   24.8540    9.4020    7.6050 C   0  0  0  0  0  0  0  0  0  0  0  0
   25.5230   10.7550    7.4270 C   0  0  0  0  0  0  0  0  0  0  0  0
   25.0020   11.4900    6.2420 C   0  0  0  0  0  0  0  0  0  0  0  0
   25.1840   12.8130    5.8920 C   0  0  0  0  0  0  0  0  0  0  0  0
   24.4890   12.9490    4.7250 N   0  0  0  0  0  0  0  0  0  0  0  0
   24.4420   14.3030    3.7300 S   0  0  0  0  0  6  0  0  0  0  0  0
   24.1250   13.7750    2.4160 O   0  0  0  0  0  0  0  0  0  0  0  0
   23.5890   15.2750    4.3860 O   0  0  0  0  0  0  0  0  0  0  0  0
   26.1180   14.9020    3.7190 C   0  0  0  0  0  0  0  0  0  0  0  0
   26.8190   14.7820    2.5100 C   0  0  0  0  0  0  0  0  0  0  0  0
   28.1420   15.1860    2.4390 C   0  0  0  0  0  0  0  0  0  0  0  0
   28.7600   15.7080    3.5730 C   0  0  0  0  0  0  0  0  0  0  0  0
   28.0890   15.8550    4.7780 C   0  0  0  0  0  0  0  0  0  0  0  0
   28.7810   16.3740    5.8020 N   0  0  0  0  0  0  0  0  0  0  0  0
   28.1540   16.5450    6.9870 C   0  0  0  0  0  0  0  0  0  0  0  0
   26.8280   16.2230    7.2240 C   0  0  0  0  0  0  0  0  0  0  0  0
   26.1880   16.4390    8.5300 C   0  0  0  0  0  0  0  0  0  0  0  0
   24.9710   15.7860    8.8530 C   0  0  0  0  0  0  0  0  0  0  0  0
   24.3410   15.9790   10.0870 C   0  0  0  0  0  0  0  0  0  0  0  0
   24.9490   16.8360   10.9810 C   0  0  0  0  0  0  0  0  0  0  0  0
   26.1430   17.4920   10.7000 C   0  0  0  0  0  0  0  0  0  0  0  0
   26.7730   17.3030    9.4800 C   0  0  0  0  0  0  0  0  0  0  0  0
   26.5580   18.3160   11.8700 C   0  0  0  0  0  0  0  0  0  0  0  0
   25.4350   18.1640   12.7860 N   0  0  0  0  0  0  0  0  0  0  0  0
   25.5130   18.6310   14.1650 C   0  0  1  0  0  0  0  0  0  0  0  0
   26.6450   17.9910   14.9700 C   0  0  0  0  0  0  0  0  0  0  0  0
   26.5950   18.5000   16.4010 C   0  0  0  0  0  0  0  0  0  0  0  0
   26.6730   20.0080   16.4500 C   0  0  0  0  0  0  0  0  0  0  0  0
   27.0650   20.6110   17.4460 O   0  0  0  0  0  0  0  0  0  0  0  0
   26.2050   20.6850   15.3520 N   0  0  0  0  0  0  0  0  0  0  0  0
   25.6080   20.1640   14.2280 C   0  0  0  0  0  0  0  0  0  0  0  0
   25.0950   20.9090   13.3940 O   0  0  0  0  0  0  0  0  0  0  0  0
   24.5240   17.2210   12.3310 C   0  0  0  0  0  0  0  0  0  0  0  0
   23.5580   16.7600   12.9090 O   0  0  0  0  0  0  0  0  0  0  0  0
   26.1270   15.6800    6.1400 C   0  0  0  0  0  0  0  0  0  0  0  0
   26.7350   15.4630    4.8750 C   0  0  0  0  0  0  0  0  0  0  0  0
   23.9160   11.7600    4.4050 C   0  0  0  0  0  0  0  0  0  0  0  0
   24.2180   10.8460    5.3040 N   0  0  0  0  0  0  0  0  0  0  0  0
   24.7464    9.1845    8.6779 H   0  0  0  0  0  0  0  0  0  0  0  0
   23.8606    9.4192    7.1330 H   0  0  0  0  0  0  0  0  0  0  0  0
   25.4708    8.6230    7.1330 H   0  0  0  0  0  0  0  0  0  0  0  0
   25.3416   11.3607    8.3271 H   0  0  0  0  0  0  0  0  0  0  0  0
   26.5979   10.5815    7.2702 H   0  0  0  0  0  0  0  0  0  0  0  0
   25.7578   13.5817    6.4304 H   0  0  0  0  0  0  0  0  0  0  0  0
   26.3198   14.3685    1.6213 H   0  0  0  0  0  0  0  0  0  0  0  0
   28.6998   15.0954    1.4953 H   0  0  0  0  0  0  0  0  0  0  0  0
   29.8148   16.0137    3.5108 H   0  0  0  0  0  0  0  0  0  0  0  0
   28.7359   16.9683    7.8190 H   0  0  0  0  0  0  0  0  0  0  0  0
   24.5115   15.1116    8.1154 H   0  0  0  0  0  0  0  0  0  0  0  0
   23.3988   15.4681   10.3345 H   0  0  0  0  0  0  0  0  0  0  0  0
   27.7174   17.8202    9.2551 H   0  0  0  0  0  0  0  0  0  0  0  0
   27.4875   17.9319   12.3155 H   0  0  0  0  0  0  0  0  0  0  0  0
   26.7706   19.3638   11.6114 H   0  0  0  0  0  0  0  0  0  0  0  0
   24.5749   18.3070   14.6394 H   0  0  0  0  0  0  0  0  0  0  0  0
   26.5266   16.8974   14.9648 H   0  0  0  0  0  0  0  0  0  0  0  0
   27.6127   18.2556   14.5188 H   0  0  0  0  0  0  0  0  0  0  0  0
   25.6519   18.1747   16.8643 H   0  0  0  0  0  0  0  0  0  0  0  0
   27.4580   18.0897   16.9459 H   0  0  0  0  0  0  0  0  0  0  0  0
   26.3143   21.7090   15.3721 H   0  0  0  0  0  0  0  0  0  0  0  0
   25.0684   15.4122    6.2730 H   0  0  0  0  0  0  0  0  0  0  0  0
   23.2878   11.5849    3.5192 H   0  0  0  0  0  0  0  0  0  0  0  0
  1  2  1  0
  2  3  1  0
  3  4  2  0
  4  5  1  0
  5  6  1  0
  6  7  2  0
  6  8  2  0
  6  9  1  0
  9 10  2  0
 10 11  1  0
 11 12  2  0
 12 13  1  0
 13 14  2  0
 14 15  1  0
 15 16  2  0
 16 17  1  0
 17 18  2  0
 18 19  1  0
 19 20  2  0
 20 21  1  0
 21 22  2  0
 21 23  1  0
 23 24  1  0
 24 25  1  0
 25 26  1  0
 26 27  1  0
 27 28  1  0
 28 29  2  0
 28 30  1  0
 30 31  1  0
 31 32  2  0
 24 33  1  0
 33 34  2  0
 16 35  1  0
 35 36  2  0
  5 37  1  0
 37 38  2  0
 38  3  1  0
 36  9  1  0
 36 13  1  0
 22 17  1  0
 31 25  1  0
 33 20  1  0
  1 39  1  0
  1 40  1  0
  1 41  1  0
  2 42  1  0
  2 43  1  0
  4 44  1  0
 10 45  1  0
 11 46  1  0
 12 47  1  0
 15 48  1  0
 18 49  1  0
 19 50  1  0
 22 51  1  0
 23 52  1  0
 23 53  1  0
 25 54  1  1
 26 55  1  0
 26 56  1  0
 27 57  1  0
 27 58  1  0
 30 59  1  0
 35 60  1  0
 37 61  1  0
M  END
>  <meeko>  (567) 
{"is_sidechain": [true], "free_energy": -12.09, "intermolecular_energy": 0.0, "internal_energy": -12.09, "cluster_size": 7, "cluster_id": 2, "rank_in_cluster": 1}

>  <_RMSD_MCS_to_ref>  (567) 
0.6811059633664445

$$$$
ligand
     RDKit          3D

 60 65  0  0  0  0  0  0  0  0999 V2000
   24.8540    9.4020    7.6050 C   0  0  0  0  0  0  0  0  0  0  0  0
   25.5230   10.7550    7.4270 C   0  0  0  0  0  0  0  0  0  0  0  0
   25.1130   11.4230    6.1610 C   0  0  0  0  0  0  0  0  0  0  0  0
   25.8380   12.2770    5.3550 C   0  0  0  0  0  0  0  0  0  0  0  0
   24.9900   12.5650    4.3230 N   0  0  0  0  0  0  0  0  0  0  0  0
   25.2470   13.7150    3.1290 S   0  0  0  0  0  6  0  0  0  0  0  0
   26.3630   13.2160    2.3490 O   0  0  0  0  0  0  0  0  0  0  0  0
   23.9430   13.9670    2.5490 O   0  0  0  0  0  0  0  0  0  0  0  0
   25.7780   15.2160    3.9100 C   0  0  0  0  0  0  0  0  0  0  0  0
   26.5140   16.1740    3.2060 C   0  0  0  0  0  0  0  0  0  0  0  0
   26.9080   17.3360    3.8560 C   0  0  0  0  0  0  0  0  0  0  0  0
   26.5690   17.5340    5.1960 C   0  0  0  0  0  0  0  0  0  0  0  0
   25.8400   16.6010    5.9180 C   0  0  0  0  0  0  0  0  0  0  0  0
   25.5620   16.8760    7.1970 N   0  0  0  0  0  0  0  0  0  0  0  0
   24.8590   15.9730    7.9040 C   0  0  0  0  0  0  0  0  0  0  0  0
   24.5530   16.2800    9.3180 C   0  0  0  0  0  0  0  0  0  0  0  0
   23.3010   15.9220    9.8930 C   0  0  0  0  0  0  0  0  0  0  0  0
   22.9880   16.2030   11.2280 C   0  0  0  0  0  0  0  0  0  0  0  0
   23.9460   16.8460   11.9810 C   0  0  0  0  0  0  0  0  0  0  0  0
   25.1810   17.2190   11.4620 C   0  0  0  0  0  0  0  0  0  0  0  0
   25.4950   16.9440   10.1390 C   0  0  0  0  0  0  0  0  0  0  0  0
   25.9880   17.9130   12.5060 C   0  0  0  0  0  0  0  0  0  0  0  0
   25.1370   17.8100   13.6860 N   0  0  0  0  0  0  0  0  0  0  0  0
   25.3760   18.5520   14.9180 C   0  0  1  0  0  0  0  0  0  0  0  0
   26.4970   17.9450   15.7560 C   0  0  0  0  0  0  0  0  0  0  0  0
   26.6230   18.7130   17.0620 C   0  0  0  0  0  0  0  0  0  0  0  0
   26.8420   20.1870   16.8090 C   0  0  0  0  0  0  0  0  0  0  0  0
   27.5590   20.8770   17.5280 O   0  0  0  0  0  0  0  0  0  0  0  0
   26.1810   20.7300   15.7370 N   0  0  0  0  0  0  0  0  0  0  0  0
   25.6950   20.0340   14.6540 C   0  0  0  0  0  0  0  0  0  0  0  0
   25.5510   20.5950   13.5710 O   0  0  0  0  0  0  0  0  0  0  0  0
   23.8970   17.2630   13.3870 C   0  0  0  0  0  0  0  0  0  0  0  0
   22.9380   17.1360   14.1230 O   0  0  0  0  0  0  0  0  0  0  0  0
   24.4150   14.8100    7.4020 N   0  0  0  0  0  0  0  0  0  0  0  0
   24.7110   14.5620    6.1110 C   0  0  0  0  0  0  0  0  0  0  0  0
   25.4340   15.4230    5.2800 C   0  0  0  0  0  0  0  0  0  0  0  0
   23.8070   11.9310    4.5280 C   0  0  0  0  0  0  0  0  0  0  0  0
   23.8460   11.2340    5.6440 N   0  0  0  0  0  0  0  0  0  0  0  0
   24.7464    9.1845    8.6779 H   0  0  0  0  0  0  0  0  0  0  0  0
   23.8606    9.4192    7.1330 H   0  0  0  0  0  0  0  0  0  0  0  0
   25.4708    8.6230    7.1330 H   0  0  0  0  0  0  0  0  0  0  0  0
   25.2471   11.4007    8.2737 H   0  0  0  0  0  0  0  0  0  0  0  0
   26.6100   10.5914    7.3858 H   0  0  0  0  0  0  0  0  0  0  0  0
   26.8641   12.6424    5.5083 H   0  0  0  0  0  0  0  0  0  0  0  0
   26.7775   16.0092    2.1508 H   0  0  0  0  0  0  0  0  0  0  0  0
   27.4866   18.0998    3.3158 H   0  0  0  0  0  0  0  0  0  0  0  0
   26.8906   18.4600    5.6951 H   0  0  0  0  0  0  0  0  0  0  0  0
   22.5557   15.4081    9.2682 H   0  0  0  0  0  0  0  0  0  0  0  0
   22.0158   15.9216   11.6588 H   0  0  0  0  0  0  0  0  0  0  0  0
   26.4720   17.2408    9.7300 H   0  0  0  0  0  0  0  0  0  0  0  0
   26.9512   17.4062   12.6655 H   0  0  0  0  0  0  0  0  0  0  0  0
   26.2469   18.9490   12.2422 H   0  0  0  0  0  0  0  0  0  0  0  0
   24.4348   18.4839   15.4832 H   0  0  0  0  0  0  0  0  0  0  0  0
   26.2655   16.8913   15.9706 H   0  0  0  0  0  0  0  0  0  0  0  0
   27.4449   18.0053   15.2011 H   0  0  0  0  0  0  0  0  0  0  0  0
   25.7000   18.5822   17.6459 H   0  0  0  0  0  0  0  0  0  0  0  0
   27.4897   18.3214   17.6147 H   0  0  0  0  0  0  0  0  0  0  0  0
   26.0354   21.7496   15.7431 H   0  0  0  0  0  0  0  0  0  0  0  0
   24.3583   13.6135    5.6798 H   0  0  0  0  0  0  0  0  0  0  0  0
   22.9382   11.9913    3.8560 H   0  0  0  0  0  0  0  0  0  0  0  0
  1  2  1  0
  2  3  1  0
  3  4  2  0
  4  5  1  0
  5  6  1  0
  6  7  2  0
  6  8  2  0
  6  9  1  0
  9 10  2  0
 10 11  1  0
 11 12  2  0
 12 13  1  0
 13 14  2  0
 14 15  1  0
 15 16  1  0
 16 17  2  0
 17 18  1  0
 18 19  2  0
 19 20  1  0
 20 21  2  0
 20 22  1  0
 22 23  1  0
 23 24  1  0
 24 25  1  0
 25 26  1  0
 26 27  1  0
 27 28  2  0
 27 29  1  0
 29 30  1  0
 30 31  2  0
 23 32  1  0
 32 33  2  0
 15 34  2  0
 34 35  1  0
 35 36  2  0
  5 37  1  0
 37 38  2  0
 38  3  1  0
 36  9  1  0
 36 13  1  0
 21 16  1  0
 30 24  1  0
 32 19  1  0
  1 39  1  0
  1 40  1  0
  1 41  1  0
  2 42  1  0
  2 43  1  0
  4 44  1  0
 10 45  1  0
 11 46  1  0
 12 47  1  0
 17 48  1  0
 18 49  1  0
 21 50  1  0
 22 51  1  0
 22 52  1  0
 24 53  1  1
 25 54  1  0
 25 55  1  0
 26 56  1  0
 26 57  1  0
 29 58  1  0
 35 59  1  0
 37 60  1  0
M  END
>  <meeko>  (568) 
{"is_sidechain": [true], "free_energy": -12.09, "intermolecular_energy": 0.0, "internal_energy": -12.09, "cluster_size": 20, "cluster_id": 1, "rank_in_cluster": 1}

>  <_RMSD_MCS_to_ref>  (568) 
0.600942592932136

$$$$
ligand
     RDKit          3D

 60 65  0  0  0  0  0  0  0  0999 V2000
   24.8540    9.4020    7.6050 C   0  0  0  0  0  0  0  0  0  0  0  0
   25.5230   10.7550    7.4270 C   0  0  0  0  0  0  0  0  0  0  0  0
   25.1560   11.3990    6.1370 C   0  0  0  0  0  0  0  0  0  0  0  0
   24.4490   12.5650    5.9190 C   0  0  0  0  0  0  0  0  0  0  0  0
   24.3890   12.6710    4.5580 N   0  0  0  0  0  0  0  0  0  0  0  0
   23.7420   13.9570    3.6880 S   0  0  0  0  0  6  0  0  0  0  0  0
   22.3050   13.8430    3.8810 O   0  0  0  0  0  0  0  0  0  0  0  0
   24.3560   13.8680    2.3730 O   0  0  0  0  0  0  0  0  0  0  0  0
   24.3420   15.4070    4.5260 C   0  0  0  0  0  0  0  0  0  0  0  0
   24.9040   15.1650    5.7320 N   0  0  0  0  0  0  0  0  0  0  0  0
   25.3600   16.2210    6.4310 C   0  0  0  0  0  0  0  0  0  0  0  0
   25.9570   15.9710    7.6710 N   0  0  0  0  0  0  0  0  0  0  0  0
   25.4800   16.2520    8.9680 C   0  0  0  0  0  0  0  0  0  0  0  0
   24.3540   15.5270    9.4290 C   0  0  0  0  0  0  0  0  0  0  0  0
   23.8180   15.7210   10.7100 C   0  0  0  0  0  0  0  0  0  0  0  0
   24.4200   16.6560   11.5280 C   0  0  0  0  0  0  0  0  0  0  0  0
   25.5210   17.3730   11.0710 C   0  0  0  0  0  0  0  0  0  0  0  0
   26.0670   17.2000    9.8110 C   0  0  0  0  0  0  0  0  0  0  0  0
   25.9550   18.2740   12.1420 C   0  0  0  0  0  0  0  0  0  0  0  0
   26.9360   18.9900   12.0950 O   0  0  0  0  0  0  0  0  0  0  0  0
   25.0520   18.1240   13.1840 N   0  0  0  0  0  0  0  0  0  0  0  0
   25.3230   18.6570   14.5140 C   0  0  1  0  0  0  0  0  0  0  0  0
   26.4920   17.9570   15.1990 C   0  0  0  0  0  0  0  0  0  0  0  0
   26.6570   18.5100   16.6070 C   0  0  0  0  0  0  0  0  0  0  0  0
   26.8300   20.0110   16.5860 C   0  0  0  0  0  0  0  0  0  0  0  0
   27.5700   20.5980   17.3700 O   0  0  0  0  0  0  0  0  0  0  0  0
   26.1040   20.7000   15.6480 N   0  0  0  0  0  0  0  0  0  0  0  0
   25.5940   20.1710   14.4840 C   0  0  0  0  0  0  0  0  0  0  0  0
   25.3960   20.8940   13.5090 O   0  0  0  0  0  0  0  0  0  0  0  0
   24.0920   17.0570   12.9280 C   0  0  0  0  0  0  0  0  0  0  0  0
   25.2700   17.4700    5.8200 C   0  0  0  0  0  0  0  0  0  0  0  0
   25.7030   18.7200    6.1990 N   0  0  0  0  0  0  0  0  0  0  0  0
   25.3660   19.6440    5.2440 C   0  0  0  0  0  0  0  0  0  0  0  0
   24.7320   18.9790    4.2170 C   0  0  0  0  0  0  0  0  0  0  0  0
   24.6830   17.6100    4.5700 C   0  0  0  0  0  0  0  0  0  0  0  0
   24.1780   16.5710    3.8740 N   0  0  0  0  0  0  0  0  0  0  0  0
   25.0660   11.6330    4.0010 C   0  0  0  0  0  0  0  0  0  0  0  0
   25.5330   10.8310    4.9350 N   0  0  0  0  0  0  0  0  0  0  0  0
   24.7464    9.1845    8.6779 H   0  0  0  0  0  0  0  0  0  0  0  0
   23.8606    9.4192    7.1330 H   0  0  0  0  0  0  0  0  0  0  0  0
   25.4708    8.6230    7.1330 H   0  0  0  0  0  0  0  0  0  0  0  0
   25.2145   11.4138    8.2521 H   0  0  0  0  0  0  0  0  0  0  0  0
   26.6114   10.5957    7.4269 H   0  0  0  0  0  0  0  0  0  0  0  0
   24.0299   13.2515    6.6694 H   0  0  0  0  0  0  0  0  0  0  0  0
   26.8797   15.5151    7.6309 H   0  0  0  0  0  0  0  0  0  0  0  0
   23.8855   14.7889    8.7614 H   0  0  0  0  0  0  0  0  0  0  0  0
   22.9450   15.1461   11.0525 H   0  0  0  0  0  0  0  0  0  0  0  0
   26.9356   17.7900    9.4833 H   0  0  0  0  0  0  0  0  0  0  0  0
   24.4097   18.4643   15.0961 H   0  0  0  0  0  0  0  0  0  0  0  0
   26.2938   16.8762   15.2500 H   0  0  0  0  0  0  0  0  0  0  0  0
   27.4135   18.1330   14.6246 H   0  0  0  0  0  0  0  0  0  0  0  0
   25.7637   18.2597   17.1981 H   0  0  0  0  0  0  0  0  0  0  0  0
   27.5558   18.0613   17.0551 H   0  0  0  0  0  0  0  0  0  0  0  0
   25.9253   21.6979   15.8301 H   0  0  0  0  0  0  0  0  0  0  0  0
   24.2345   16.2184   13.6254 H   0  0  0  0  0  0  0  0  0  0  0  0
   23.0453   17.3678   13.0612 H   0  0  0  0  0  0  0  0  0  0  0  0
   26.2066   18.9306    7.0724 H   0  0  0  0  0  0  0  0  0  0  0  0
   25.5662   20.7247    5.2895 H   0  0  0  0  0  0  0  0  0  0  0  0
   24.3373   19.4291    3.2941 H   0  0  0  0  0  0  0  0  0  0  0  0
   25.2047   11.4834    2.9201 H   0  0  0  0  0  0  0  0  0  0  0  0
  1  2  1  0
  2  3  1  0
  3  4  2  0
  4  5  1  0
  5  6  1  0
  6  7  2  0
  6  8  2  0
  6  9  1  0
  9 10  2  0
 10 11  1  0
 11 12  1  0
 12 13  1  0
 13 14  2  0
 14 15  1  0
 15 16  2  0
 16 17  1  0
 17 18  2  0
 17 19  1  0
 19 20  2  0
 19 21  1  0
 21 22  1  0
 22 23  1  0
 23 24  1  0
 24 25  1  0
 25 26  2  0
 25 27  1  0
 27 28  1  0
 28 29  2  0
 21 30  1  0
 11 31  2  0
 31 32  1  0
 32 33  1  0
 33 34  2  0
 34 35  1  0
 35 36  2  0
  5 37  1  0
 37 38  2  0
 38  3  1  0
 36  9  1  0
 18 13  1  0
 28 22  1  0
 35 31  1  0
 30 16  1  0
  1 39  1  0
  1 40  1  0
  1 41  1  0
  2 42  1  0
  2 43  1  0
  4 44  1  0
 12 45  1  0
 14 46  1  0
 15 47  1  0
 18 48  1  0
 22 49  1  1
 23 50  1  0
 23 51  1  0
 24 52  1  0
 24 53  1  0
 27 54  1  0
 30 55  1  0
 30 56  1  0
 32 57  1  0
 33 58  1  0
 34 59  1  0
 37 60  1  0
M  END
>  <meeko>  (569) 
{"is_sidechain": [true], "free_energy": -12.09, "intermolecular_energy": 0.0, "internal_energy": -12.09, "cluster_size": 14, "cluster_id": 1, "rank_in_cluster": 1}

>  <_RMSD_MCS_to_ref>  (569) 
0.5454775685376781

$$$$
ligand
     RDKit          3D

 61 66  0  0  0  0  0  0  0  0999 V2000
   24.8540    9.4020    7.6050 C   0  0  0  0  0  0  0  0  0  0  0  0
   25.5230   10.7550    7.4270 C   0  0  0  0  0  0  0  0  0  0  0  0
   25.2160   11.3660    6.1040 C   0  0  0  0  0  0  0  0  0  0  0  0
   24.0950   12.0680    5.7090 C   0  0  0  0  0  0  0  0  0  0  0  0
   24.3430   12.3850    4.4030 N   0  0  0  0  0  0  0  0  0  0  0  0
   23.3310   13.2860    3.4110 S   0  0  0  0  0  6  0  0  0  0  0  0
   22.9400   12.4360    2.3080 O   0  0  0  0  0  0  0  0  0  0  0  0
   22.3520   13.8310    4.3350 O   0  0  0  0  0  0  0  0  0  0  0  0
   24.2870   14.6280    2.7910 C   0  0  0  0  0  0  0  0  0  0  0  0
   24.1760   14.8900    1.4330 C   0  0  0  0  0  0  0  0  0  0  0  0
   24.7980   15.9200    0.8120 N   0  0  0  0  0  0  0  0  0  0  0  0
   25.5770   16.7150    1.5700 C   0  0  0  0  0  0  0  0  0  0  0  0
   25.7560   16.5280    2.9290 C   0  0  0  0  0  0  0  0  0  0  0  0
   25.1030   15.4620    3.5620 C   0  0  0  0  0  0  0  0  0  0  0  0
   25.3370   15.2670    4.9700 C   0  0  0  0  0  0  0  0  0  0  0  0
   24.8160   16.0280    5.9910 C   0  0  0  0  0  0  0  0  0  0  0  0
   25.2810   15.4260    7.1420 N   0  0  0  0  0  0  0  0  0  0  0  0
   25.0160   15.7660    8.4930 C   0  0  0  0  0  0  0  0  0  0  0  0
   23.7980   15.3500    9.0870 C   0  0  0  0  0  0  0  0  0  0  0  0
   23.4900   15.6740   10.4160 C   0  0  0  0  0  0  0  0  0  0  0  0
   24.4080   16.4150   11.1360 C   0  0  0  0  0  0  0  0  0  0  0  0
   25.6010   16.8180   10.5410 C   0  0  0  0  0  0  0  0  0  0  0  0
   25.9400   16.5110    9.2360 C   0  0  0  0  0  0  0  0  0  0  0  0
   26.3750   17.5700   11.5330 C   0  0  0  0  0  0  0  0  0  0  0  0
   27.4980   18.0020   11.3550 O   0  0  0  0  0  0  0  0  0  0  0  0
   25.6000   17.6390   12.6780 N   0  0  0  0  0  0  0  0  0  0  0  0
   26.1180   18.1510   13.9430 C   0  0  2  0  0  0  0  0  0  0  0  0
   25.7780   17.2000   15.0920 C   0  0  0  0  0  0  0  0  0  0  0  0
   26.4360   17.6850   16.3740 C   0  0  0  0  0  0  0  0  0  0  0  0
   26.0310   19.1030   16.6930 C   0  0  0  0  0  0  0  0  0  0  0  0
   25.9260   19.5150   17.8450 O   0  0  0  0  0  0  0  0  0  0  0  0
   25.8140   19.9350   15.6240 N   0  0  0  0  0  0  0  0  0  0  0  0
   25.6580   19.5740   14.3050 C   0  0  0  0  0  0  0  0  0  0  0  0
   25.2040   20.3810   13.4980 O   0  0  0  0  0  0  0  0  0  0  0  0
   24.3460   16.9050   12.5460 C   0  0  0  0  0  0  0  0  0  0  0  0
   26.0860   14.3870    6.8050 N   0  0  0  0  0  0  0  0  0  0  0  0
   26.1120   14.2780    5.4840 N   0  0  0  0  0  0  0  0  0  0  0  0
   25.5390   11.8620    4.0340 C   0  0  0  0  0  0  0  0  0  0  0  0
   26.1110   11.2600    5.0580 N   0  0  0  0  0  0  0  0  0  0  0  0
   24.7464    9.1845    8.6779 H   0  0  0  0  0  0  0  0  0  0  0  0
   23.8606    9.4192    7.1330 H   0  0  0  0  0  0  0  0  0  0  0  0
   25.4708    8.6230    7.1330 H   0  0  0  0  0  0  0  0  0  0  0  0
   25.1704   11.4313    8.2197 H   0  0  0  0  0  0  0  0  0  0  0  0
   26.6110   10.6033    7.4840 H   0  0  0  0  0  0  0  0  0  0  0  0
   23.2062   12.3154    6.3079 H   0  0  0  0  0  0  0  0  0  0  0  0
   23.5466   14.2226    0.8260 H   0  0  0  0  0  0  0  0  0  0  0  0
   26.0966   17.5544    1.0847 H   0  0  0  0  0  0  0  0  0  0  0  0
   26.4022   17.2069    3.5048 H   0  0  0  0  0  0  0  0  0  0  0  0
   24.1731   16.9167    5.9082 H   0  0  0  0  0  0  0  0  0  0  0  0
   23.0814   14.7623    8.4945 H   0  0  0  0  0  0  0  0  0  0  0  0
   22.5441   15.3475   10.8728 H   0  0  0  0  0  0  0  0  0  0  0  0
   26.8954   16.8383    8.7999 H   0  0  0  0  0  0  0  0  0  0  0  0
   27.2063   18.2101   13.7943 H   0  0  0  0  0  0  0  0  0  0  0  0
   24.6871   17.1697   15.2303 H   0  0  0  0  0  0  0  0  0  0  0  0
   26.1493   16.1928   14.8518 H   0  0  0  0  0  0  0  0  0  0  0  0
   26.1317   17.0298   17.2035 H   0  0  0  0  0  0  0  0  0  0  0  0
   27.5271   17.6569   16.2375 H   0  0  0  0  0  0  0  0  0  0  0  0
   25.7620   20.9425   15.8317 H   0  0  0  0  0  0  0  0  0  0  0  0
   24.2987   16.0669   13.2568 H   0  0  0  0  0  0  0  0  0  0  0  0
   23.4555   17.5140   12.7609 H   0  0  0  0  0  0  0  0  0  0  0  0
   25.9701   11.9304    3.0243 H   0  0  0  0  0  0  0  0  0  0  0  0
  1  2  1  0
  2  3  1  0
  3  4  2  0
  4  5  1  0
  5  6  1  0
  6  7  2  0
  6  8  2  0
  6  9  1  0
  9 10  2  0
 10 11  1  0
 11 12  2  0
 12 13  1  0
 13 14  2  0
 14 15  1  0
 15 16  2  0
 16 17  1  0
 17 18  1  0
 18 19  2  0
 19 20  1  0
 20 21  2  0
 21 22  1  0
 22 23  2  0
 22 24  1  0
 24 25  2  0
 24 26  1  0
 26 27  1  0
 27 28  1  0
 28 29  1  0
 29 30  1  0
 30 31  2  0
 30 32  1  0
 32 33  1  0
 33 34  2  0
 26 35  1  0
 17 36  1  0
 36 37  2  0
  5 38  1  0
 38 39  2  0
 39  3  1  0
 14  9  1  0
 37 15  1  0
 23 18  1  0
 33 27  1  0
 35 21  1  0
  1 40  1  0
  1 41  1  0
  1 42  1  0
  2 43  1  0
  2 44  1  0
  4 45  1  0
 10 46  1  0
 12 47  1  0
 13 48  1  0
 16 49  1  0
 19 50  1  0
 20 51  1  0
 23 52  1  0
 27 53  1  6
 28 54  1  0
 28 55  1  0
 29 56  1  0
 29 57  1  0
 32 58  1  0
 35 59  1  0
 35 60  1  0
 38 61  1  0
M  END
>  <meeko>  (570) 
{"is_sidechain": [true], "free_energy": -12.09, "intermolecular_energy": 0.0, "internal_energy": -12.09, "cluster_size": 14, "cluster_id": 1, "rank_in_cluster": 1}

>  <_RMSD_MCS_to_ref>  (570) 
1.1182694467593912

$$$$
ligand
     RDKit          3D

 64 68  0  0  0  0  0  0  0  0999 V2000
   24.8710    9.6160    7.7820 C   0  0  0  0  0  0  0  0  0  0  0  0
   25.4240   10.9650    7.3490 C   0  0  0  0  0  0  0  0  0  0  0  0
   26.8870   10.9140    7.0850 C   0  0  0  0  0  0  0  0  0  0  0  0
   27.5560   11.0090    5.8810 C   0  0  0  0  0  0  0  0  0  0  0  0
   28.8740   10.8770    6.2180 N   0  0  0  0  0  0  0  0  0  0  0  0
   30.1820   11.0970    5.1870 S   0  0  0  0  0  6  0  0  0  0  0  0
   30.1520    9.9430    4.3080 O   0  0  0  0  0  0  0  0  0  0  0  0
   31.3030   11.3990    6.0550 O   0  0  0  0  0  0  0  0  0  0  0  0
   29.8590   12.5460    4.1960 C   0  0  0  0  0  0  0  0  0  0  0  0
   30.2890   12.6000    2.8630 C   0  0  0  0  0  0  0  0  0  0  0  0
   30.0470   13.7390    2.0970 C   0  0  0  0  0  0  0  0  0  0  0  0
   29.3840   14.8280    2.6540 C   0  0  0  0  0  0  0  0  0  0  0  0
   28.9510   14.7980    3.9880 C   0  0  0  0  0  0  0  0  0  0  0  0
   29.1670   13.6390    4.7690 C   0  0  0  0  0  0  0  0  0  0  0  0
   28.6930   13.6330    6.2130 C   0  0  0  0  0  0  0  0  0  0  0  0
   27.7190   14.7760    6.5390 C   0  0  1  0  0  0  0  0  0  0  0  0
   27.5080   14.8970    8.0650 C   0  0  0  0  0  0  0  0  0  0  0  0
   27.7440   13.9680    8.8310 O   0  0  0  0  0  0  0  0  0  0  0  0
   26.9800   16.1330    8.4050 N   0  0  0  0  0  0  0  0  0  0  0  0
   26.5950   16.6010    9.6700 C   0  0  0  0  0  0  0  0  0  0  0  0
   25.6040   16.0090   10.4510 C   0  0  0  0  0  0  0  0  0  0  0  0
   25.2720   16.5430   11.7030 C   0  0  0  0  0  0  0  0  0  0  0  0
   25.9230   17.6810   12.1970 C   0  0  0  0  0  0  0  0  0  0  0  0
   25.5650   18.2160   13.5740 C   0  0  1  0  0  0  0  0  0  0  0  0
   26.3170   17.4260   14.6520 C   0  0  0  0  0  0  0  0  0  0  0  0
   25.9080   17.9160   16.0310 C   0  0  0  0  0  0  0  0  0  0  0  0
   26.1550   19.3970   16.1750 C   0  0  0  0  0  0  0  0  0  0  0  0
   26.3550   19.9260   17.2640 O   0  0  0  0  0  0  0  0  0  0  0  0
   26.0830   20.1420   15.0260 N   0  0  0  0  0  0  0  0  0  0  0  0
   25.8150   19.7140   13.7460 C   0  0  0  0  0  0  0  0  0  0  0  0
   25.7360   20.5370   12.8360 O   0  0  0  0  0  0  0  0  0  0  0  0
   26.9230   18.2690   11.4120 C   0  0  0  0  0  0  0  0  0  0  0  0
   27.2490   17.7370   10.1590 C   0  0  0  0  0  0  0  0  0  0  0  0
   28.2070   16.0730    5.9950 N   0  0  0  0  0  0  0  0  0  0  0  0
   28.2030   15.9950    4.5310 C   0  0  0  0  0  0  0  0  0  0  0  0
   28.9770   10.7380    7.5660 C   0  0  0  0  0  0  0  0  0  0  0  0
   27.7850   10.7670    8.1240 N   0  0  0  0  0  0  0  0  0  0  0  0
   24.8497    9.5640    8.8806 H   0  0  0  0  0  0  0  0  0  0  0  0
   23.8507    9.4948    7.3893 H   0  0  0  0  0  0  0  0  0  0  0  0
   25.5127    8.8135    7.3893 H   0  0  0  0  0  0  0  0  0  0  0  0
   24.9089   11.2804    6.4297 H   0  0  0  0  0  0  0  0  0  0  0  0
   25.2534   11.6787    8.1685 H   0  0  0  0  0  0  0  0  0  0  0  0
   27.1264   11.1571    4.8793 H   0  0  0  0  0  0  0  0  0  0  0  0
   30.8179   11.7427    2.4211 H   0  0  0  0  0  0  0  0  0  0  0  0
   30.3810   13.7770    1.0496 H   0  0  0  0  0  0  0  0  0  0  0  0
   29.1973   15.7224    2.0415 H   0  0  0  0  0  0  0  0  0  0  0  0
   28.1869   12.6764    6.4101 H   0  0  0  0  0  0  0  0  0  0  0  0
   29.5809   13.7714    6.8474 H   0  0  0  0  0  0  0  0  0  0  0  0
   26.7576   14.5363    6.0613 H   0  0  0  0  0  0  0  0  0  0  0  0
   26.8538   16.7949    7.6260 H   0  0  0  0  0  0  0  0  0  0  0  0
   25.0786   15.1159   10.0817 H   0  0  0  0  0  0  0  0  0  0  0  0
   24.4887   16.0617   12.3070 H   0  0  0  0  0  0  0  0  0  0  0  0
   24.4793   18.0781   13.6844 H   0  0  0  0  0  0  0  0  0  0  0  0
   26.0739   16.3574   14.5575 H   0  0  0  0  0  0  0  0  0  0  0  0
   27.3991   17.5737   14.5210 H   0  0  0  0  0  0  0  0  0  0  0  0
   24.8372   17.7138   16.1814 H   0  0  0  0  0  0  0  0  0  0  0  0
   26.5103   17.3860   16.7835 H   0  0  0  0  0  0  0  0  0  0  0  0
   26.2512   21.1523   15.1352 H   0  0  0  0  0  0  0  0  0  0  0  0
   27.4566   19.1563   11.7833 H   0  0  0  0  0  0  0  0  0  0  0  0
   28.0293   18.2182    9.5511 H   0  0  0  0  0  0  0  0  0  0  0  0
   27.5864   16.8348    6.3040 H   0  0  0  0  0  0  0  0  0  0  0  0
   27.1593   15.9380    4.1883 H   0  0  0  0  0  0  0  0  0  0  0  0
   28.7164   16.8935    4.1580 H   0  0  0  0  0  0  0  0  0  0  0  0
   29.9233   10.6181    8.1138 H   0  0  0  0  0  0  0  0  0  0  0  0
  1  2  1  0
  2  3  1  0
  3  4  2  0
  4  5  1  0
  5  6  1  0
  6  7  2  0
  6  8  2  0
  6  9  1  0
  9 10  2  0
 10 11  1  0
 11 12  2  0
 12 13  1  0
 13 14  2  0
 14 15  1  0
 15 16  1  0
 16 17  1  0
 17 18  2  0
 17 19  1  0
 19 20  1  0
 20 21  2  0
 21 22  1  0
 22 23  2  0
 23 24  1  0
 24 25  1  0
 25 26  1  0
 26 27  1  0
 27 28  2  0
 27 29  1  0
 29 30  1  0
 30 31  2  0
 23 32  1  0
 32 33  2  0
 16 34  1  0
 34 35  1  0
  5 36  1  0
 36 37  2  0
 37  3  1  0
 14  9  1  0
 33 20  1  0
 35 13  1  0
 30 24  1  0
  1 38  1  0
  1 39  1  0
  1 40  1  0
  2 41  1  0
  2 42  1  0
  4 43  1  0
 10 44  1  0
 11 45  1  0
 12 46  1  0
 15 47  1  0
 15 48  1  0
 16 49  1  6
 19 50  1  0
 21 51  1  0
 22 52  1  0
 24 53  1  1
 25 54  1  0
 25 55  1  0
 26 56  1  0
 26 57  1  0
 29 58  1  0
 32 59  1  0
 33 60  1  0
 34 61  1  0
 35 62  1  0
 35 63  1  0
 36 64  1  0
M  END
>  <meeko>  (571) 
{"is_sidechain": [true], "free_energy": -12.09, "intermolecular_energy": 0.0, "internal_energy": -12.09, "cluster_size": 20, "cluster_id": 1, "rank_in_cluster": 1}

>  <_RMSD_MCS_to_ref>  (571) 
1.0126228320554505

$$$$
ligand
     RDKit          3D

 48 51  0  0  0  0  0  0  0  0999 V2000
   24.8710    9.6160    7.7820 C   0  0  0  0  0  0  0  0  0  0  0  0
   25.4240   10.9650    7.3490 C   0  0  0  0  0  0  0  0  0  0  0  0
   26.4660   11.4770    8.2810 C   0  0  0  0  0  0  0  0  0  0  0  0
   27.3230   12.5460    8.1130 C   0  0  0  0  0  0  0  0  0  0  0  0
   28.0060   12.6170    9.2920 N   0  0  0  0  0  0  0  0  0  0  0  0
   29.2230   13.7210    9.6630 S   0  0  0  0  0  6  0  0  0  0  0  0
   29.9730   13.8990    8.4320 O   0  0  0  0  0  0  0  0  0  0  0  0
   29.8640   13.1590   10.8400 O   0  0  0  0  0  0  0  0  0  0  0  0
   28.5230   15.1230   10.1040 O   0  0  0  0  0  0  0  0  0  0  0  0
   27.1910   15.2400   10.1250 C   0  0  0  0  0  0  0  0  0  0  0  0
   26.3180   14.9850    9.0700 C   0  0  0  0  0  0  0  0  0  0  0  0
   25.0740   15.2750    9.5780 C   0  0  0  0  0  0  0  0  0  0  0  0
   23.8340   15.1790    9.0150 N   0  0  0  0  0  0  0  0  0  0  0  0
   22.8390   15.5400    9.7650 C   0  0  0  0  0  0  0  0  0  0  0  0
   22.9360   16.0530   11.1540 C   0  0  0  0  0  0  0  0  0  0  0  0
   24.1780   16.1410   11.6660 C   0  0  0  0  0  0  0  0  0  0  0  0
   24.2770   16.6890   13.0470 C   0  0  0  0  0  0  0  0  0  0  0  0
   23.5360   16.2980   13.9450 O   0  0  0  0  0  0  0  0  0  0  0  0
   25.2090   17.6690   13.2410 N   0  0  0  0  0  0  0  0  0  0  0  0
   25.3120   18.4030   14.4930 C   0  0  1  0  0  0  0  0  0  0  0  0
   26.2450   17.7120   15.4800 C   0  0  0  0  0  0  0  0  0  0  0  0
   26.3630   18.5420   16.7470 C   0  0  0  0  0  0  0  0  0  0  0  0
   26.7800   19.9630   16.4470 C   0  0  0  0  0  0  0  0  0  0  0  0
   27.4720   20.6240   17.2170 O   0  0  0  0  0  0  0  0  0  0  0  0
   26.3000   20.5140   15.2880 N   0  0  0  0  0  0  0  0  0  0  0  0
   25.8020   19.8260   14.2080 C   0  0  0  0  0  0  0  0  0  0  0  0
   25.7150   20.3620   13.1030 O   0  0  0  0  0  0  0  0  0  0  0  0
   25.2710   15.7390   10.8900 N   0  0  0  0  0  0  0  0  0  0  0  0
   26.6050   15.7230   11.2170 N   0  0  0  0  0  0  0  0  0  0  0  0
   27.6270   11.5850   10.0880 C   0  0  0  0  0  0  0  0  0  0  0  0
   26.6860   10.8690    9.5040 N   0  0  0  0  0  0  0  0  0  0  0  0
   24.8497    9.5640    8.8806 H   0  0  0  0  0  0  0  0  0  0  0  0
   23.8507    9.4948    7.3893 H   0  0  0  0  0  0  0  0  0  0  0  0
   25.5127    8.8135    7.3893 H   0  0  0  0  0  0  0  0  0  0  0  0
   25.8666   10.8603    6.3474 H   0  0  0  0  0  0  0  0  0  0  0  0
   24.5917   11.6842    7.3488 H   0  0  0  0  0  0  0  0  0  0  0  0
   27.4307   13.1931    7.2300 H   0  0  0  0  0  0  0  0  0  0  0  0
   26.5676   14.6314    8.0587 H   0  0  0  0  0  0  0  0  0  0  0  0
   21.8312   15.4584    9.3317 H   0  0  0  0  0  0  0  0  0  0  0  0
   22.0459   16.3441   11.7311 H   0  0  0  0  0  0  0  0  0  0  0  0
   25.8601   17.8956   12.4758 H   0  0  0  0  0  0  0  0  0  0  0  0
   24.3143   18.4365   14.9550 H   0  0  0  0  0  0  0  0  0  0  0  0
   25.8414   16.7198   15.7301 H   0  0  0  0  0  0  0  0  0  0  0  0
   27.2400   17.6041   15.0235 H   0  0  0  0  0  0  0  0  0  0  0  0
   25.3879   18.5565   17.2559 H   0  0  0  0  0  0  0  0  0  0  0  0
   27.1339   18.0858   17.3854 H   0  0  0  0  0  0  0  0  0  0  0  0
   26.3138   21.5417   15.2199 H   0  0  0  0  0  0  0  0  0  0  0  0
   28.0468   11.3749   11.0828 H   0  0  0  0  0  0  0  0  0  0  0  0
  1  2  1  0
  2  3  1  0
  3  4  2  0
  4  5  1  0
  5  6  1  0
  6  7  2  0
  6  8  2  0
  6  9  1  0
  9 10  1  0
 10 11  1  0
 11 12  2  0
 12 13  1  0
 13 14  2  0
 14 15  1  0
 15 16  2  0
 16 17  1  0
 17 18  2  0
 17 19  1  0
 19 20  1  0
 20 21  1  0
 21 22  1  0
 22 23  1  0
 23 24  2  0
 23 25  1  0
 25 26  1  0
 26 27  2  0
 16 28  1  0
 28 29  1  0
  5 30  1  0
 30 31  2  0
 31  3  1  0
 29 10  2  0
 28 12  1  0
 26 20  1  0
  1 32  1  0
  1 33  1  0
  1 34  1  0
  2 35  1  0
  2 36  1  0
  4 37  1  0
 11 38  1  0
 14 39  1  0
 15 40  1  0
 19 41  1  0
 20 42  1  1
 21 43  1  0
 21 44  1  0
 22 45  1  0
 22 46  1  0
 25 47  1  0
 30 48  1  0
M  END
>  <meeko>  (572) 
{"is_sidechain": [true], "free_energy": -12.09, "intermolecular_energy": 0.0, "internal_energy": -12.09, "cluster_size": 11, "cluster_id": 1, "rank_in_cluster": 1}

>  <_RMSD_MCS_to_ref>  (572) 
0.6538605016022575

$$$$
ligand
     RDKit          3D

 50 53  0  0  0  0  0  0  0  0999 V2000
   24.8710    9.6160    7.7820 C   0  0  0  0  0  0  0  0  0  0  0  0
   25.4240   10.9650    7.3490 C   0  0  0  0  0  0  0  0  0  0  0  0
   26.7830   11.2320    7.8950 C   0  0  0  0  0  0  0  0  0  0  0  0
   27.1300   11.8720    9.0700 C   0  0  0  0  0  0  0  0  0  0  0  0
   28.4940   11.8250    9.0910 N   0  0  0  0  0  0  0  0  0  0  0  0
   29.4910   12.6460   10.1770 S   0  0  0  0  0  6  0  0  0  0  0  0
   28.9870   12.2510   11.4790 O   0  0  0  0  0  0  0  0  0  0  0  0
   30.8380   12.3040    9.7540 O   0  0  0  0  0  0  0  0  0  0  0  0
   29.1840   14.2290    9.9500 O   0  0  0  0  0  0  0  0  0  0  0  0
   28.1720   14.5220    9.0730 C   0  0  0  0  0  0  0  0  0  0  0  0
   28.4080   14.1700    7.7860 N   0  0  0  0  0  0  0  0  0  0  0  0
   27.4280   14.4400    6.9060 C   0  0  0  0  0  0  0  0  0  0  0  0
   26.2380   15.0520    7.2590 C   0  0  0  0  0  0  0  0  0  0  0  0
   26.0390   15.4230    8.5980 C   0  0  0  0  0  0  0  0  0  0  0  0
   24.8570   16.0510    9.0140 C   0  0  0  0  0  0  0  0  0  0  0  0
   24.6950   16.4150   10.3450 C   0  0  0  0  0  0  0  0  0  0  0  0
   25.7320   16.1430   11.2220 C   0  0  0  0  0  0  0  0  0  0  0  0
   25.6070   16.5460   12.6610 C   0  0  0  0  0  0  0  0  0  0  0  0
   25.4830   15.7170   13.5550 O   0  0  0  0  0  0  0  0  0  0  0  0
   25.6310   17.9010   12.8780 N   0  0  0  0  0  0  0  0  0  0  0  0
   25.4770   18.5040   14.1900 C   0  0  1  0  0  0  0  0  0  0  0  0
   26.4350   17.8960   15.2070 C   0  0  0  0  0  0  0  0  0  0  0  0
   26.2940   18.6080   16.5420 C   0  0  0  0  0  0  0  0  0  0  0  0
   26.4990   20.0960   16.3960 C   0  0  0  0  0  0  0  0  0  0  0  0
   26.9990   20.7840   17.2820 O   0  0  0  0  0  0  0  0  0  0  0  0
   26.0460   20.6670   15.2360 N   0  0  0  0  0  0  0  0  0  0  0  0
   25.7150   20.0150   14.0720 C   0  0  0  0  0  0  0  0  0  0  0  0
   25.5740   20.6400   13.0200 O   0  0  0  0  0  0  0  0  0  0  0  0
   26.8930   15.5240   10.8630 N   0  0  0  0  0  0  0  0  0  0  0  0
   27.0350   15.1690    9.5610 C   0  0  0  0  0  0  0  0  0  0  0  0
   28.9340   11.2420    7.9470 C   0  0  0  0  0  0  0  0  0  0  0  0
   27.9190   10.8620    7.1980 N   0  0  0  0  0  0  0  0  0  0  0  0
   24.8497    9.5640    8.8806 H   0  0  0  0  0  0  0  0  0  0  0  0
   23.8507    9.4948    7.3893 H   0  0  0  0  0  0  0  0  0  0  0  0
   25.5127    8.8135    7.3893 H   0  0  0  0  0  0  0  0  0  0  0  0
   25.4756   10.9878    6.2504 H   0  0  0  0  0  0  0  0  0  0  0  0
   24.7504   11.7411    7.7413 H   0  0  0  0  0  0  0  0  0  0  0  0
   26.4589   12.3182    9.8187 H   0  0  0  0  0  0  0  0  0  0  0  0
   27.5796   14.1605    5.8530 H   0  0  0  0  0  0  0  0  0  0  0  0
   25.4618   15.2443    6.5036 H   0  0  0  0  0  0  0  0  0  0  0  0
   24.0576   16.2557    8.2866 H   0  0  0  0  0  0  0  0  0  0  0  0
   23.7724   16.9037   10.6913 H   0  0  0  0  0  0  0  0  0  0  0  0
   25.7653   18.5227   12.0678 H   0  0  0  0  0  0  0  0  0  0  0  0
   24.4559   18.3082   14.5491 H   0  0  0  0  0  0  0  0  0  0  0  0
   26.2004   16.8291   15.3363 H   0  0  0  0  0  0  0  0  0  0  0  0
   27.4672   18.0090   14.8441 H   0  0  0  0  0  0  0  0  0  0  0  0
   25.2860   18.4230   16.9417 H   0  0  0  0  0  0  0  0  0  0  0  0
   27.0623   18.2178   17.2257 H   0  0  0  0  0  0  0  0  0  0  0  0
   25.9427   21.6918   15.2361 H   0  0  0  0  0  0  0  0  0  0  0  0
   29.9928   11.1055    7.6817 H   0  0  0  0  0  0  0  0  0  0  0  0
  1  2  1  0
  2  3  1  0
  3  4  2  0
  4  5  1  0
  5  6  1  0
  6  7  2  0
  6  8  2  0
  6  9  1  0
  9 10  1  0
 10 11  2  0
 11 12  1  0
 12 13  2  0
 13 14  1  0
 14 15  2  0
 15 16  1  0
 16 17  2  0
 17 18  1  0
 18 19  2  0
 18 20  1  0
 20 21  1  0
 21 22  1  0
 22 23  1  0
 23 24  1  0
 24 25  2  0
 24 26  1  0
 26 27  1  0
 27 28  2  0
 17 29  1  0
 29 30  2  0
  5 31  1  0
 31 32  2  0
 32  3  1  0
 30 10  1  0
 30 14  1  0
 27 21  1  0
  1 33  1  0
  1 34  1  0
  1 35  1  0
  2 36  1  0
  2 37  1  0
  4 38  1  0
 12 39  1  0
 13 40  1  0
 15 41  1  0
 16 42  1  0
 20 43  1  0
 21 44  1  1
 22 45  1  0
 22 46  1  0
 23 47  1  0
 23 48  1  0
 26 49  1  0
 31 50  1  0
M  END
>  <meeko>  (573) 
{"is_sidechain": [true], "free_energy": -12.09, "intermolecular_energy": 0.0, "internal_energy": -12.09, "cluster_size": 14, "cluster_id": 1, "rank_in_cluster": 1}

>  <_RMSD_MCS_to_ref>  (573) 
0.786544552669036

$$$$
ligand
     RDKit          3D

 64 68  0  0  0  0  0  0  0  0999 V2000
   24.8540    9.4020    7.6050 C   0  0  0  0  0  0  0  0  0  0  0  0
   25.5230   10.7550    7.4270 C   0  0  0  0  0  0  0  0  0  0  0  0
   24.8540   11.5790    6.3840 C   0  0  0  0  0  0  0  0  0  0  0  0
   25.3150   11.9410    5.1340 C   0  0  0  0  0  0  0  0  0  0  0  0
   24.2970   12.6810    4.6020 N   0  0  0  0  0  0  0  0  0  0  0  0
   24.3500   13.5510    3.1670 S   0  0  0  0  0  6  0  0  0  0  0  0
   23.0960   14.2810    3.1320 O   0  0  0  0  0  0  0  0  0  0  0  0
   24.7240   12.5950    2.1440 O   0  0  0  0  0  0  0  0  0  0  0  0
   25.6680   14.7430    3.2970 C   0  0  0  0  0  0  0  0  0  0  0  0
   26.3920   15.1200    2.1570 C   0  0  0  0  0  0  0  0  0  0  0  0
   27.4400   16.0320    2.2660 C   0  0  0  0  0  0  0  0  0  0  0  0
   27.7730   16.5660    3.5060 C   0  0  0  0  0  0  0  0  0  0  0  0
   27.0580   16.2010    4.6550 C   0  0  0  0  0  0  0  0  0  0  0  0
   25.9740   15.3000    4.5620 C   0  0  0  0  0  0  0  0  0  0  0  0
   25.2160   14.9060    5.8180 C   0  0  0  0  0  0  0  0  0  0  0  0
   25.3530   15.8650    6.9250 N   0  0  0  0  0  0  0  0  0  0  0  0
   26.7980   16.1190    7.1730 C   0  0  2  0  0  0  0  0  0  0  0  0
   26.9690   16.9610    8.4570 C   0  0  0  0  0  0  0  0  0  0  0  0
   27.8690   17.7870    8.5730 O   0  0  0  0  0  0  0  0  0  0  0  0
   26.0410   16.6070    9.4210 N   0  0  0  0  0  0  0  0  0  0  0  0
   25.8930   17.1120   10.7230 C   0  0  0  0  0  0  0  0  0  0  0  0
   26.7670   18.1300   11.1180 C   0  0  0  0  0  0  0  0  0  0  0  0
   26.6840   18.6870   12.3990 C   0  0  0  0  0  0  0  0  0  0  0  0
   25.7260   18.2350   13.3130 C   0  0  0  0  0  0  0  0  0  0  0  0
   25.6330   18.8640   14.6930 C   0  0  1  0  0  0  0  0  0  0  0  0
   26.6860   18.2600   15.6290 C   0  0  0  0  0  0  0  0  0  0  0  0
   26.5530   18.8670   17.0150 C   0  0  0  0  0  0  0  0  0  0  0  0
   26.6760   20.3700   16.9620 C   0  0  0  0  0  0  0  0  0  0  0  0
   27.0240   21.0350   17.9330 O   0  0  0  0  0  0  0  0  0  0  0  0
   26.3070   20.9720   15.7860 N   0  0  0  0  0  0  0  0  0  0  0  0
   25.7440   20.3880   14.6730 C   0  0  0  0  0  0  0  0  0  0  0  0
   25.3060   21.0970   13.7710 O   0  0  0  0  0  0  0  0  0  0  0  0
   24.8510   17.2150   12.9110 C   0  0  0  0  0  0  0  0  0  0  0  0
   24.9350   16.6600   11.6290 C   0  0  0  0  0  0  0  0  0  0  0  0
   27.4410   16.8290    5.9770 C   0  0  0  0  0  0  0  0  0  0  0  0
   23.2910   12.7730    5.5090 C   0  0  0  0  0  0  0  0  0  0  0  0
   23.6010   12.1170    6.6080 N   0  0  0  0  0  0  0  0  0  0  0  0
   24.7464    9.1845    8.6779 H   0  0  0  0  0  0  0  0  0  0  0  0
   23.8606    9.4192    7.1330 H   0  0  0  0  0  0  0  0  0  0  0  0
   25.4708    8.6230    7.1330 H   0  0  0  0  0  0  0  0  0  0  0  0
   25.4871   11.2967    8.3837 H   0  0  0  0  0  0  0  0  0  0  0  0
   26.5602   10.5796    7.1055 H   0  0  0  0  0  0  0  0  0  0  0  0
   26.2813   11.6908    4.6718 H   0  0  0  0  0  0  0  0  0  0  0  0
   26.1326   14.6956    1.1759 H   0  0  0  0  0  0  0  0  0  0  0  0
   28.0045   16.3298    1.3701 H   0  0  0  0  0  0  0  0  0  0  0  0
   28.6049   17.2812    3.5859 H   0  0  0  0  0  0  0  0  0  0  0  0
   24.1489   14.8196    5.5653 H   0  0  0  0  0  0  0  0  0  0  0  0
   25.6474   13.9555    6.1651 H   0  0  0  0  0  0  0  0  0  0  0  0
   24.8853   16.7483    6.6760 H   0  0  0  0  0  0  0  0  0  0  0  0
   27.3065   15.1528    7.3069 H   0  0  0  0  0  0  0  0  0  0  0  0
   25.3695   15.8757    9.1469 H   0  0  0  0  0  0  0  0  0  0  0  0
   27.5282   18.4969   10.4137 H   0  0  0  0  0  0  0  0  0  0  0  0
   27.3790   19.4883   12.6903 H   0  0  0  0  0  0  0  0  0  0  0  0
   24.6274   18.6321   15.0737 H   0  0  0  0  0  0  0  0  0  0  0  0
   26.5377   17.1718   15.6914 H   0  0  0  0  0  0  0  0  0  0  0  0
   27.6894   18.4758   15.2333 H   0  0  0  0  0  0  0  0  0  0  0  0
   25.5701   18.6011   17.4312 H   0  0  0  0  0  0  0  0  0  0  0  0
   27.3602   18.4718   17.6492 H   0  0  0  0  0  0  0  0  0  0  0  0
   26.4714   21.9871   15.7281 H   0  0  0  0  0  0  0  0  0  0  0  0
   24.0885   16.8464   13.6129 H   0  0  0  0  0  0  0  0  0  0  0  0
   24.2394   15.8606   11.3339 H   0  0  0  0  0  0  0  0  0  0  0  0
   27.1169   17.8802    5.9750 H   0  0  0  0  0  0  0  0  0  0  0  0
   28.5323   16.7420    6.0843 H   0  0  0  0  0  0  0  0  0  0  0  0
   22.3495   13.3187    5.3485 H   0  0  0  0  0  0  0  0  0  0  0  0
  1  2  1  0
  2  3  1  0
  3  4  2  0
  4  5  1  0
  5  6  1  0
  6  7  2  0
  6  8  2  0
  6  9  1  0
  9 10  2  0
 10 11  1  0
 11 12  2  0
 12 13  1  0
 13 14  2  0
 14 15  1  0
 15 16  1  0
 16 17  1  0
 17 18  1  0
 18 19  2  0
 18 20  1  0
 20 21  1  0
 21 22  2  0
 22 23  1  0
 23 24  2  0
 24 25  1  0
 25 26  1  0
 26 27  1  0
 27 28  1  0
 28 29  2  0
 28 30  1  0
 30 31  1  0
 31 32  2  0
 24 33  1  0
 33 34  2  0
 17 35  1  0
  5 36  1  0
 36 37  2  0
 37  3  1  0
 14  9  1  0
 34 21  1  0
 35 13  1  0
 31 25  1  0
  1 38  1  0
  1 39  1  0
  1 40  1  0
  2 41  1  0
  2 42  1  0
  4 43  1  0
 10 44  1  0
 11 45  1  0
 12 46  1  0
 15 47  1  0
 15 48  1  0
 16 49  1  0
 17 50  1  1
 20 51  1  0
 22 52  1  0
 23 53  1  0
 25 54  1  1
 26 55  1  0
 26 56  1  0
 27 57  1  0
 27 58  1  0
 30 59  1  0
 33 60  1  0
 34 61  1  0
 35 62  1  0
 35 63  1  0
 36 64  1  0
M  END
>  <meeko>  (574) 
{"is_sidechain": [true], "free_energy": -12.08, "intermolecular_energy": 0.0, "internal_energy": -12.08, "cluster_size": 20, "cluster_id": 1, "rank_in_cluster": 1}

>  <_RMSD_MCS_to_ref>  (574) 
0.8559630541092293

$$$$
ligand
     RDKit          3D

 59 64  0  0  0  0  0  0  0  0999 V2000
   24.8710    9.6160    7.7820 C   0  0  0  0  0  0  0  0  0  0  0  0
   25.4240   10.9650    7.3490 C   0  0  0  0  0  0  0  0  0  0  0  0
   24.9080   11.3810    6.0160 C   0  0  0  0  0  0  0  0  0  0  0  0
   24.3900   12.6020    5.6290 C   0  0  0  0  0  0  0  0  0  0  0  0
   24.0710   12.4240    4.3130 N   0  0  0  0  0  0  0  0  0  0  0  0
   23.4620   13.6130    3.2810 S   0  0  0  0  0  6  0  0  0  0  0  0
   22.0910   13.7740    3.7330 O   0  0  0  0  0  0  0  0  0  0  0  0
   23.7390   13.1500    1.9320 O   0  0  0  0  0  0  0  0  0  0  0  0
   24.2300   15.0120    3.5550 O   0  0  0  0  0  0  0  0  0  0  0  0
   25.2330   15.0500    4.4840 C   0  0  0  0  0  0  0  0  0  0  0  0
   24.8140   15.2710    5.7410 N   0  0  0  0  0  0  0  0  0  0  0  0
   25.7300   15.2700    6.7490 C   0  0  0  0  0  0  0  0  0  0  0  0
   25.2450   15.5500    8.1040 C   0  0  0  0  0  0  0  0  0  0  0  0
   24.0840   14.9190    8.6260 C   0  0  0  0  0  0  0  0  0  0  0  0
   23.6200   15.1840    9.9190 C   0  0  0  0  0  0  0  0  0  0  0  0
   24.3430   16.0750   10.6830 C   0  0  0  0  0  0  0  0  0  0  0  0
   25.4920   16.7030   10.2140 C   0  0  0  0  0  0  0  0  0  0  0  0
   25.9540   16.4480    8.9320 C   0  0  0  0  0  0  0  0  0  0  0  0
   26.0380   17.6130   11.2610 C   0  0  0  0  0  0  0  0  0  0  0  0
   25.1590   17.3600   12.3960 N   0  0  0  0  0  0  0  0  0  0  0  0
   25.1950   18.2050   13.5850 C   0  0  2  0  0  0  0  0  0  0  0  0
   25.7790   19.5950   13.3350 C   0  0  0  0  0  0  0  0  0  0  0  0
   25.7130   20.4070   14.6180 C   0  0  0  0  0  0  0  0  0  0  0  0
   26.4300   19.7070   15.7480 C   0  0  0  0  0  0  0  0  0  0  0  0
   26.8660   20.3140   16.7220 O   0  0  0  0  0  0  0  0  0  0  0  0
   26.4990   18.3380   15.6800 N   0  0  0  0  0  0  0  0  0  0  0  0
   25.9340   17.5080   14.7390 C   0  0  0  0  0  0  0  0  0  0  0  0
   25.9470   16.2890   14.8990 O   0  0  0  0  0  0  0  0  0  0  0  0
   24.0970   16.5360   12.0530 C   0  0  0  0  0  0  0  0  0  0  0  0
   23.1220   16.2400   12.7170 O   0  0  0  0  0  0  0  0  0  0  0  0
   27.0660   14.9680    6.4480 C   0  0  0  0  0  0  0  0  0  0  0  0
   28.2950   14.7940    7.1480 C   0  0  0  0  0  0  0  0  0  0  0  0
   29.2690   14.4770    6.2230 C   0  0  0  0  0  0  0  0  0  0  0  0
   28.6760   14.4410    4.9870 N   0  0  0  0  0  0  0  0  0  0  0  0
   27.3450   14.7320    5.1110 C   0  0  0  0  0  0  0  0  0  0  0  0
   26.4780   14.7630    4.0910 N   0  0  0  0  0  0  0  0  0  0  0  0
   24.3820   11.1560    3.9430 C   0  0  0  0  0  0  0  0  0  0  0  0
   24.9060   10.4960    4.9550 N   0  0  0  0  0  0  0  0  0  0  0  0
   24.8497    9.5640    8.8806 H   0  0  0  0  0  0  0  0  0  0  0  0
   23.8507    9.4948    7.3893 H   0  0  0  0  0  0  0  0  0  0  0  0
   25.5127    8.8135    7.3893 H   0  0  0  0  0  0  0  0  0  0  0  0
   25.1351   11.7220    8.0930 H   0  0  0  0  0  0  0  0  0  0  0  0
   26.5178   10.8744    7.2752 H   0  0  0  0  0  0  0  0  0  0  0  0
   24.2637   13.5081    6.2397 H   0  0  0  0  0  0  0  0  0  0  0  0
   23.5352   14.2029    7.9967 H   0  0  0  0  0  0  0  0  0  0  0  0
   22.7132   14.7000   10.3109 H   0  0  0  0  0  0  0  0  0  0  0  0
   26.8653   16.9411    8.5627 H   0  0  0  0  0  0  0  0  0  0  0  0
   27.0807   17.3592   11.5026 H   0  0  0  0  0  0  0  0  0  0  0  0
   26.0602   18.6688   10.9531 H   0  0  0  0  0  0  0  0  0  0  0  0
   24.1440   18.3592   13.8707 H   0  0  0  0  0  0  0  0  0  0  0  0
   26.8267   19.5008   13.0135 H   0  0  0  0  0  0  0  0  0  0  0  0
   25.2000   20.1015   12.5487 H   0  0  0  0  0  0  0  0  0  0  0  0
   26.1839   21.3863   14.4469 H   0  0  0  0  0  0  0  0  0  0  0  0
   24.6563   20.5271   14.8989 H   0  0  0  0  0  0  0  0  0  0  0  0
   27.0399   17.8752   16.4244 H   0  0  0  0  0  0  0  0  0  0  0  0
   28.4415   14.8946    8.2336 H   0  0  0  0  0  0  0  0  0  0  0  0
   30.3308   14.2872    6.4386 H   0  0  0  0  0  0  0  0  0  0  0  0
   29.1582   14.2278    4.1021 H   0  0  0  0  0  0  0  0  0  0  0  0
   24.2192   10.7380    2.9386 H   0  0  0  0  0  0  0  0  0  0  0  0
  1  2  1  0
  2  3  1  0
  3  4  2  0
  4  5  1  0
  5  6  1  0
  6  7  2  0
  6  8  2  0
  6  9  1  0
  9 10  1  0
 10 11  2  0
 11 12  1  0
 12 13  1  0
 13 14  2  0
 14 15  1  0
 15 16  2  0
 16 17  1  0
 17 18  2  0
 17 19  1  0
 19 20  1  0
 20 21  1  0
 21 22  1  0
 22 23  1  0
 23 24  1  0
 24 25  2  0
 24 26  1  0
 26 27  1  0
 27 28  2  0
 20 29  1  0
 29 30  2  0
 12 31  2  0
 31 32  1  0
 32 33  2  0
 33 34  1  0
 34 35  1  0
 35 36  2  0
  5 37  1  0
 37 38  2  0
 38  3  1  0
 36 10  1  0
 18 13  1  0
 27 21  1  0
 35 31  1  0
 29 16  1  0
  1 39  1  0
  1 40  1  0
  1 41  1  0
  2 42  1  0
  2 43  1  0
  4 44  1  0
 14 45  1  0
 15 46  1  0
 18 47  1  0
 19 48  1  0
 19 49  1  0
 21 50  1  1
 22 51  1  0
 22 52  1  0
 23 53  1  0
 23 54  1  0
 26 55  1  0
 32 56  1  0
 33 57  1  0
 34 58  1  0
 37 59  1  0
M  END
>  <meeko>  (575) 
{"is_sidechain": [true], "free_energy": -12.08, "intermolecular_energy": 0.0, "internal_energy": -12.08, "cluster_size": 14, "cluster_id": 1, "rank_in_cluster": 1}

>  <_RMSD_MCS_to_ref>  (575) 
1.7675604210621094

$$$$
ligand
     RDKit          3D

 64 68  0  0  0  0  0  0  0  0999 V2000
   24.8710    9.6160    7.7820 C   0  0  0  0  0  0  0  0  0  0  0  0
   25.4240   10.9650    7.3490 C   0  0  0  0  0  0  0  0  0  0  0  0
   24.9630   11.3500    5.9880 C   0  0  0  0  0  0  0  0  0  0  0  0
   24.1300   12.3860    5.6140 C   0  0  0  0  0  0  0  0  0  0  0  0
   24.0360   12.2670    4.2550 N   0  0  0  0  0  0  0  0  0  0  0  0
   23.3100   13.3660    3.2130 S   0  0  0  0  0  6  0  0  0  0  0  0
   22.9800   12.5890    2.0340 O   0  0  0  0  0  0  0  0  0  0  0  0
   22.3110   14.0480    4.0150 O   0  0  0  0  0  0  0  0  0  0  0  0
   24.5420   14.5710    2.7470 C   0  0  0  0  0  0  0  0  0  0  0  0
   24.8320   14.7990    1.3940 C   0  0  0  0  0  0  0  0  0  0  0  0
   25.7820   15.7520    1.0360 C   0  0  0  0  0  0  0  0  0  0  0  0
   26.4440   16.4840    2.0170 C   0  0  0  0  0  0  0  0  0  0  0  0
   26.1650   16.2750    3.3760 C   0  0  0  0  0  0  0  0  0  0  0  0
   25.2210   15.2950    3.7560 C   0  0  0  0  0  0  0  0  0  0  0  0
   24.9320   15.0930    5.2340 C   0  0  0  0  0  0  0  0  0  0  0  0
   25.9720   15.7500    6.1550 C   0  0  2  0  0  0  0  0  0  0  0  0
   25.4730   15.7700    7.6170 C   0  0  0  0  0  0  0  0  0  0  0  0
   24.7610   14.8810    8.0720 O   0  0  0  0  0  0  0  0  0  0  0  0
   25.9850   16.8540    8.3120 N   0  0  0  0  0  0  0  0  0  0  0  0
   25.7930   17.2010    9.6590 C   0  0  0  0  0  0  0  0  0  0  0  0
   24.7720   16.6900   10.4560 C   0  0  0  0  0  0  0  0  0  0  0  0
   24.6460   17.0900   11.7920 C   0  0  0  0  0  0  0  0  0  0  0  0
   25.5390   18.0100   12.3570 C   0  0  0  0  0  0  0  0  0  0  0  0
   25.3970   18.3990   13.8190 C   0  0  1  0  0  0  0  0  0  0  0  0
   26.3130   17.5240   14.6820 C   0  0  0  0  0  0  0  0  0  0  0  0
   26.1200   17.8650   16.1500 C   0  0  0  0  0  0  0  0  0  0  0  0
   26.3770   19.3290   16.4040 C   0  0  0  0  0  0  0  0  0  0  0  0
   26.7410   19.7540   17.4960 O   0  0  0  0  0  0  0  0  0  0  0  0
   26.1220   20.1830   15.3610 N   0  0  0  0  0  0  0  0  0  0  0  0
   25.6620   19.8780   14.1000 C   0  0  0  0  0  0  0  0  0  0  0  0
   25.4380   20.7840   13.3010 O   0  0  0  0  0  0  0  0  0  0  0  0
   26.5710   18.5120   11.5530 C   0  0  0  0  0  0  0  0  0  0  0  0
   26.6930   18.1150   10.2180 C   0  0  0  0  0  0  0  0  0  0  0  0
   26.2880   17.1360    5.7110 N   0  0  0  0  0  0  0  0  0  0  0  0
   26.9410   17.0720    4.4010 C   0  0  0  0  0  0  0  0  0  0  0  0
   24.8000   11.2210    3.8460 C   0  0  0  0  0  0  0  0  0  0  0  0
   25.3860   10.6470    4.8760 N   0  0  0  0  0  0  0  0  0  0  0  0
   24.8497    9.5640    8.8806 H   0  0  0  0  0  0  0  0  0  0  0  0
   23.8507    9.4948    7.3893 H   0  0  0  0  0  0  0  0  0  0  0  0
   25.5127    8.8135    7.3893 H   0  0  0  0  0  0  0  0  0  0  0  0
   25.0917   11.7307    8.0655 H   0  0  0  0  0  0  0  0  0  0  0  0
   26.5211   10.8886    7.3252 H   0  0  0  0  0  0  0  0  0  0  0  0
   23.6515   13.1356    6.2614 H   0  0  0  0  0  0  0  0  0  0  0  0
   24.3088   14.2248    0.6152 H   0  0  0  0  0  0  0  0  0  0  0  0
   26.0099   15.9268   -0.0258 H   0  0  0  0  0  0  0  0  0  0  0  0
   27.1935   17.2340    1.7240 H   0  0  0  0  0  0  0  0  0  0  0  0
   23.9454   15.5246    5.4585 H   0  0  0  0  0  0  0  0  0  0  0  0
   24.9660   14.0105    5.4263 H   0  0  0  0  0  0  0  0  0  0  0  0
   26.8908   15.1479    6.0980 H   0  0  0  0  0  0  0  0  0  0  0  0
   26.5862   17.4896    7.7684 H   0  0  0  0  0  0  0  0  0  0  0  0
   24.0592   15.9668   10.0330 H   0  0  0  0  0  0  0  0  0  0  0  0
   23.8337   16.6757   12.4072 H   0  0  0  0  0  0  0  0  0  0  0  0
   24.3427   18.2274   14.0816 H   0  0  0  0  0  0  0  0  0  0  0  0
   26.0661   16.4647   14.5180 H   0  0  0  0  0  0  0  0  0  0  0  0
   27.3604   17.7091   14.4016 H   0  0  0  0  0  0  0  0  0  0  0  0
   25.0869   17.6254   16.4420 H   0  0  0  0  0  0  0  0  0  0  0  0
   26.8351   17.2760   16.7431 H   0  0  0  0  0  0  0  0  0  0  0  0
   26.2974   21.1811   15.5453 H   0  0  0  0  0  0  0  0  0  0  0  0
   27.2927   19.2259   11.9766 H   0  0  0  0  0  0  0  0  0  0  0  0
   27.5054   18.5257    9.6004 H   0  0  0  0  0  0  0  0  0  0  0  0
   25.4186   17.6835    5.6385 H   0  0  0  0  0  0  0  0  0  0  0  0
   27.0642   18.0978    4.0233 H   0  0  0  0  0  0  0  0  0  0  0  0
   27.9043   16.5608    4.5453 H   0  0  0  0  0  0  0  0  0  0  0  0
   24.9133   10.8985    2.8005 H   0  0  0  0  0  0  0  0  0  0  0  0
  1  2  1  0
  2  3  1  0
  3  4  2  0
  4  5  1  0
  5  6  1  0
  6  7  2  0
  6  8  2  0
  6  9  1  0
  9 10  2  0
 10 11  1  0
 11 12  2  0
 12 13  1  0
 13 14  2  0
 14 15  1  0
 15 16  1  0
 16 17  1  0
 17 18  2  0
 17 19  1  0
 19 20  1  0
 20 21  2  0
 21 22  1  0
 22 23  2  0
 23 24  1  0
 24 25  1  0
 25 26  1  0
 26 27  1  0
 27 28  2  0
 27 29  1  0
 29 30  1  0
 30 31  2  0
 23 32  1  0
 32 33  2  0
 16 34  1  0
 34 35  1  0
  5 36  1  0
 36 37  2  0
 37  3  1  0
 14  9  1  0
 33 20  1  0
 35 13  1  0
 30 24  1  0
  1 38  1  0
  1 39  1  0
  1 40  1  0
  2 41  1  0
  2 42  1  0
  4 43  1  0
 10 44  1  0
 11 45  1  0
 12 46  1  0
 15 47  1  0
 15 48  1  0
 16 49  1  1
 19 50  1  0
 21 51  1  0
 22 52  1  0
 24 53  1  1
 25 54  1  0
 25 55  1  0
 26 56  1  0
 26 57  1  0
 29 58  1  0
 32 59  1  0
 33 60  1  0
 34 61  1  0
 35 62  1  0
 35 63  1  0
 36 64  1  0
M  END
>  <meeko>  (576) 
{"is_sidechain": [true], "free_energy": -12.07, "intermolecular_energy": 0.0, "internal_energy": -12.07, "cluster_size": 19, "cluster_id": 1, "rank_in_cluster": 1}

>  <_RMSD_MCS_to_ref>  (576) 
0.8549468550734594

$$$$
ligand
     RDKit          3D

 53 56  0  0  0  0  0  0  0  0999 V2000
   24.8540    9.4020    7.6050 C   0  0  0  0  0  0  0  0  0  0  0  0
   25.5230   10.7550    7.4270 C   0  0  0  0  0  0  0  0  0  0  0  0
   27.0060   10.6800    7.5460 C   0  0  0  0  0  0  0  0  0  0  0  0
   27.9280   11.7090    7.5320 C   0  0  0  0  0  0  0  0  0  0  0  0
   29.1350   11.0830    7.6630 N   0  0  0  0  0  0  0  0  0  0  0  0
   30.6070   11.8480    7.9630 S   0  0  0  0  0  6  0  0  0  0  0  0
   31.1260   12.1740    6.6490 O   0  0  0  0  0  0  0  0  0  0  0  0
   31.3190   11.0000    8.8980 O   0  0  0  0  0  0  0  0  0  0  0  0
   30.1950   13.3600    8.7920 C   0  0  0  0  0  0  0  0  0  0  0  0
   31.2160   14.2070    9.2200 C   0  0  0  0  0  0  0  0  0  0  0  0
   30.8870   15.4120    9.8400 C   0  0  0  0  0  0  0  0  0  0  0  0
   29.5450   15.7740   10.0160 C   0  0  0  0  0  0  0  0  0  0  0  0
   28.4990   14.9380    9.5880 C   0  0  0  0  0  0  0  0  0  0  0  0
   27.0790   15.3210    9.7110 C   0  0  0  0  0  0  0  0  0  0  0  0
   26.2470   15.1130    8.6760 N   0  0  0  0  0  0  0  0  0  0  0  0
   24.9480   15.4300    8.8650 C   0  0  0  0  0  0  0  0  0  0  0  0
   24.4470   15.9280   10.0430 C   0  0  0  0  0  0  0  0  0  0  0  0
   25.3790   16.0990   11.0360 C   0  0  0  0  0  0  0  0  0  0  0  0
   24.9820   16.6030   12.3900 C   0  0  0  0  0  0  0  0  0  0  0  0
   24.0740   16.0950   13.0340 O   0  0  0  0  0  0  0  0  0  0  0  0
   25.7380   17.6660   12.8210 N   0  0  0  0  0  0  0  0  0  0  0  0
   25.5760   18.3320   14.0990 C   0  0  1  0  0  0  0  0  0  0  0  0
   26.4690   17.6970   15.1570 C   0  0  0  0  0  0  0  0  0  0  0  0
   26.3510   18.4680   16.4610 C   0  0  0  0  0  0  0  0  0  0  0  0
   26.6840   19.9280   16.2640 C   0  0  0  0  0  0  0  0  0  0  0  0
   27.2170   20.6010   17.1410 O   0  0  0  0  0  0  0  0  0  0  0  0
   26.3110   20.4840   15.0670 N   0  0  0  0  0  0  0  0  0  0  0  0
   25.9350   19.8150   13.9270 C   0  0  0  0  0  0  0  0  0  0  0  0
   25.8600   20.4040   12.8480 O   0  0  0  0  0  0  0  0  0  0  0  0
   26.6950   15.8120   10.8990 N   0  0  0  0  0  0  0  0  0  0  0  0
   28.8560   13.7110    8.9930 C   0  0  0  0  0  0  0  0  0  0  0  0
   28.9290    9.7430    7.7710 C   0  0  0  0  0  0  0  0  0  0  0  0
   27.6400    9.4660    7.7220 N   0  0  0  0  0  0  0  0  0  0  0  0
   24.7464    9.1845    8.6779 H   0  0  0  0  0  0  0  0  0  0  0  0
   23.8606    9.4192    7.1330 H   0  0  0  0  0  0  0  0  0  0  0  0
   25.4708    8.6230    7.1330 H   0  0  0  0  0  0  0  0  0  0  0  0
   25.2687   11.1456    6.4306 H   0  0  0  0  0  0  0  0  0  0  0  0
   25.1572   11.4157    8.2268 H   0  0  0  0  0  0  0  0  0  0  0  0
   27.7340   12.7876    7.4369 H   0  0  0  0  0  0  0  0  0  0  0  0
   32.2695   13.9280    9.0704 H   0  0  0  0  0  0  0  0  0  0  0  0
   31.6852   16.0817   10.1927 H   0  0  0  0  0  0  0  0  0  0  0  0
   29.3048   16.7325   10.4992 H   0  0  0  0  0  0  0  0  0  0  0  0
   24.2509   15.2808    8.0273 H   0  0  0  0  0  0  0  0  0  0  0  0
   23.3828   16.1706   10.1798 H   0  0  0  0  0  0  0  0  0  0  0  0
   26.4736   18.0155   12.1904 H   0  0  0  0  0  0  0  0  0  0  0  0
   24.5329   18.2316   14.4334 H   0  0  0  0  0  0  0  0  0  0  0  0
   26.1577   16.6546   15.3197 H   0  0  0  0  0  0  0  0  0  0  0  0
   27.5136   17.7227   14.8133 H   0  0  0  0  0  0  0  0  0  0  0  0
   25.3206   18.3824   16.8365 H   0  0  0  0  0  0  0  0  0  0  0  0
   27.0634   18.0425   17.1831 H   0  0  0  0  0  0  0  0  0  0  0  0
   26.3129   21.5128   15.0172 H   0  0  0  0  0  0  0  0  0  0  0  0
   28.0644   13.0144    8.6799 H   0  0  0  0  0  0  0  0  0  0  0  0
   29.7266    8.9939    7.8836 H   0  0  0  0  0  0  0  0  0  0  0  0
  1  2  1  0
  2  3  1  0
  3  4  2  0
  4  5  1  0
  5  6  1  0
  6  7  2  0
  6  8  2  0
  6  9  1  0
  9 10  2  0
 10 11  1  0
 11 12  2  0
 12 13  1  0
 13 14  1  0
 14 15  2  0
 15 16  1  0
 16 17  2  0
 17 18  1  0
 18 19  1  0
 19 20  2  0
 19 21  1  0
 21 22  1  0
 22 23  1  0
 23 24  1  0
 24 25  1  0
 25 26  2  0
 25 27  1  0
 27 28  1  0
 28 29  2  0
 18 30  2  0
 13 31  2  0
  5 32  1  0
 32 33  2  0
 33  3  1  0
 31  9  1  0
 30 14  1  0
 28 22  1  0
  1 34  1  0
  1 35  1  0
  1 36  1  0
  2 37  1  0
  2 38  1  0
  4 39  1  0
 10 40  1  0
 11 41  1  0
 12 42  1  0
 16 43  1  0
 17 44  1  0
 21 45  1  0
 22 46  1  1
 23 47  1  0
 23 48  1  0
 24 49  1  0
 24 50  1  0
 27 51  1  0
 31 52  1  0
 32 53  1  0
M  END
>  <meeko>  (577) 
{"is_sidechain": [true], "free_energy": -12.06, "intermolecular_energy": 0.0, "internal_energy": -12.06, "cluster_size": 13, "cluster_id": 1, "rank_in_cluster": 1}

>  <_RMSD_MCS_to_ref>  (577) 
0.8321460876018762

$$$$
ligand
     RDKit          3D

 59 64  0  0  0  0  0  0  0  0999 V2000
   24.8710    9.6160    7.7820 C   0  0  0  0  0  0  0  0  0  0  0  0
   25.4240   10.9650    7.3490 C   0  0  0  0  0  0  0  0  0  0  0  0
   26.6420   10.8270    6.5040 C   0  0  0  0  0  0  0  0  0  0  0  0
   27.9690   10.9690    6.8590 C   0  0  0  0  0  0  0  0  0  0  0  0
   28.6530   10.6980    5.7090 N   0  0  0  0  0  0  0  0  0  0  0  0
   30.3000   10.9520    5.4650 S   0  0  0  0  0  6  0  0  0  0  0  0
   30.9600   10.2090    6.5210 O   0  0  0  0  0  0  0  0  0  0  0  0
   30.5290   10.6510    4.0650 O   0  0  0  0  0  0  0  0  0  0  0  0
   30.5620   12.5420    5.7050 O   0  0  0  0  0  0  0  0  0  0  0  0
   29.6010   13.3950    6.2080 C   0  0  0  0  0  0  0  0  0  0  0  0
   29.1700   13.4380    7.6470 C   0  0  0  0  0  0  0  0  0  0  0  0
   28.2660   14.2230    8.1550 N   0  0  0  0  0  0  0  0  0  0  0  0
   27.6590   15.0950    7.2850 C   0  0  0  0  0  0  0  0  0  0  0  0
   26.6860   16.0670    7.4560 C   0  0  0  0  0  0  0  0  0  0  0  0
   26.0340   16.4160    8.7100 C   0  0  0  0  0  0  0  0  0  0  0  0
   24.7580   15.8770    9.0060 C   0  0  0  0  0  0  0  0  0  0  0  0
   24.1040   16.1760   10.2060 C   0  0  0  0  0  0  0  0  0  0  0  0
   24.7510   17.0170   11.0880 C   0  0  0  0  0  0  0  0  0  0  0  0
   26.0070   17.5580   10.8260 C   0  0  0  0  0  0  0  0  0  0  0  0
   26.6620   17.2630    9.6420 C   0  0  0  0  0  0  0  0  0  0  0  0
   26.4470   18.4090   11.9700 C   0  0  0  0  0  0  0  0  0  0  0  0
   25.2900   18.3730   12.8560 N   0  0  0  0  0  0  0  0  0  0  0  0
   25.3140   18.8570   14.2300 C   0  0  2  0  0  0  0  0  0  0  0  0
   26.4080   19.8940   14.4640 C   0  0  0  0  0  0  0  0  0  0  0  0
   26.3120   20.4190   15.8880 C   0  0  0  0  0  0  0  0  0  0  0  0
   26.3810   19.2900   16.8910 C   0  0  0  0  0  0  0  0  0  0  0  0
   26.9370   19.4100   17.9780 O   0  0  0  0  0  0  0  0  0  0  0  0
   25.7710   18.1150   16.5340 N   0  0  0  0  0  0  0  0  0  0  0  0
   25.4820   17.7160   15.2480 C   0  0  0  0  0  0  0  0  0  0  0  0
   25.3840   16.5210   14.9780 O   0  0  0  0  0  0  0  0  0  0  0  0
   24.3130   17.4980   12.4020 C   0  0  0  0  0  0  0  0  0  0  0  0
   23.2820   17.1730   12.9600 O   0  0  0  0  0  0  0  0  0  0  0  0
   26.5140   16.6180    6.1680 C   0  0  0  0  0  0  0  0  0  0  0  0
   27.2980   16.0590    5.2460 N   0  0  0  0  0  0  0  0  0  0  0  0
   28.0030   15.1280    5.9280 N   0  0  0  0  0  0  0  0  0  0  0  0
   28.9700   14.2720    5.4170 C   0  0  0  0  0  0  0  0  0  0  0  0
   27.7680   10.4890    4.7020 C   0  0  0  0  0  0  0  0  0  0  0  0
   26.5340   10.5370    5.1570 N   0  0  0  0  0  0  0  0  0  0  0  0
   24.8497    9.5640    8.8806 H   0  0  0  0  0  0  0  0  0  0  0  0
   23.8507    9.4948    7.3893 H   0  0  0  0  0  0  0  0  0  0  0  0
   25.5127    8.8135    7.3893 H   0  0  0  0  0  0  0  0  0  0  0  0
   24.6517   11.4966    6.7736 H   0  0  0  0  0  0  0  0  0  0  0  0
   25.7023   11.5231    8.2551 H   0  0  0  0  0  0  0  0  0  0  0  0
   28.3805   11.2386    7.8428 H   0  0  0  0  0  0  0  0  0  0  0  0
   29.6663   12.7390    8.3363 H   0  0  0  0  0  0  0  0  0  0  0  0
   24.2720   15.2105    8.2783 H   0  0  0  0  0  0  0  0  0  0  0  0
   23.1134   15.7573   10.4372 H   0  0  0  0  0  0  0  0  0  0  0  0
   27.6567   17.6838    9.4335 H   0  0  0  0  0  0  0  0  0  0  0  0
   27.3362   17.9862   12.4605 H   0  0  0  0  0  0  0  0  0  0  0  0
   26.7383   19.4269   11.6716 H   0  0  0  0  0  0  0  0  0  0  0  0
   24.3347   19.3335   14.3847 H   0  0  0  0  0  0  0  0  0  0  0  0
   27.3930   19.4291   14.3102 H   0  0  0  0  0  0  0  0  0  0  0  0
   26.2814   20.7268   13.7566 H   0  0  0  0  0  0  0  0  0  0  0  0
   27.1448   21.1138   16.0715 H   0  0  0  0  0  0  0  0  0  0  0  0
   25.3464   20.9324   16.0063 H   0  0  0  0  0  0  0  0  0  0  0  0
   25.5054   17.4739   17.2952 H   0  0  0  0  0  0  0  0  0  0  0  0
   25.8036   17.4282    5.9469 H   0  0  0  0  0  0  0  0  0  0  0  0
   29.2212   14.3151    4.3469 H   0  0  0  0  0  0  0  0  0  0  0  0
   28.0432   10.3053    3.6529 H   0  0  0  0  0  0  0  0  0  0  0  0
  1  2  1  0
  2  3  1  0
  3  4  2  0
  4  5  1  0
  5  6  1  0
  6  7  2  0
  6  8  2  0
  6  9  1  0
  9 10  1  0
 10 11  1  0
 11 12  2  0
 12 13  1  0
 13 14  2  0
 14 15  1  0
 15 16  2  0
 16 17  1  0
 17 18  2  0
 18 19  1  0
 19 20  2  0
 19 21  1  0
 21 22  1  0
 22 23  1  0
 23 24  1  0
 24 25  1  0
 25 26  1  0
 26 27  2  0
 26 28  1  0
 28 29  1  0
 29 30  2  0
 22 31  1  0
 31 32  2  0
 14 33  1  0
 33 34  2  0
 34 35  1  0
 35 36  1  0
  5 37  1  0
 37 38  2  0
 38  3  1  0
 36 10  2  0
 35 13  1  0
 20 15  1  0
 29 23  1  0
 31 18  1  0
  1 39  1  0
  1 40  1  0
  1 41  1  0
  2 42  1  0
  2 43  1  0
  4 44  1  0
 11 45  1  0
 16 46  1  0
 17 47  1  0
 20 48  1  0
 21 49  1  0
 21 50  1  0
 23 51  1  1
 24 52  1  0
 24 53  1  0
 25 54  1  0
 25 55  1  0
 28 56  1  0
 33 57  1  0
 36 58  1  0
 37 59  1  0
M  END
>  <meeko>  (578) 
{"is_sidechain": [true], "free_energy": -12.06, "intermolecular_energy": 0.0, "internal_energy": -12.06, "cluster_size": 19, "cluster_id": 1, "rank_in_cluster": 1}

>  <_RMSD_MCS_to_ref>  (578) 
1.7498153887587236

$$$$
ligand
     RDKit          3D

 63 68  0  0  0  0  0  0  0  0999 V2000
   24.8710    9.6160    7.7820 C   0  0  0  0  0  0  0  0  0  0  0  0
   25.4240   10.9650    7.3490 C   0  0  0  0  0  0  0  0  0  0  0  0
   26.8960   10.9240    7.1270 C   0  0  0  0  0  0  0  0  0  0  0  0
   27.9060   11.4590    7.9010 C   0  0  0  0  0  0  0  0  0  0  0  0
   29.0530   11.1000    7.2510 N   0  0  0  0  0  0  0  0  0  0  0  0
   30.5980   11.6830    7.5860 S   0  0  0  0  0  6  0  0  0  0  0  0
   31.0890   10.8310    8.6520 O   0  0  0  0  0  0  0  0  0  0  0  0
   31.2570   11.7420    6.2940 O   0  0  0  0  0  0  0  0  0  0  0  0
   30.3870   13.1960    8.1540 O   0  0  0  0  0  0  0  0  0  0  0  0
   29.2010   13.6220    8.6840 C   0  0  0  0  0  0  0  0  0  0  0  0
   28.7210   13.3250    9.9600 C   0  0  0  0  0  0  0  0  0  0  0  0
   27.4700   13.8130   10.3880 C   0  0  0  0  0  0  0  0  0  0  0  0
   26.6690   14.6080    9.5540 C   0  0  0  0  0  0  0  0  0  0  0  0
   25.3760   15.1100   10.0090 C   0  0  0  0  0  0  0  0  0  0  0  0
   24.1930   14.8260    9.2990 C   0  0  0  0  0  0  0  0  0  0  0  0
   22.9440   15.3240    9.7170 C   0  0  0  0  0  0  0  0  0  0  0  0
   22.8440   16.1210   10.8570 C   0  0  0  0  0  0  0  0  0  0  0  0
   24.0110   16.3850   11.5460 C   0  0  0  0  0  0  0  0  0  0  0  0
   25.2560   15.8980   11.1470 C   0  0  0  0  0  0  0  0  0  0  0  0
   26.3120   16.3800   12.0880 C   0  0  0  0  0  0  0  0  0  0  0  0
   25.5440   17.1080   13.0890 N   0  0  0  0  0  0  0  0  0  0  0  0
   26.1510   17.9860   14.0820 C   0  0  1  0  0  0  0  0  0  0  0  0
   25.3610   19.2760   14.2830 C   0  0  0  0  0  0  0  0  0  0  0  0
   26.1020   20.1750   15.2610 C   0  0  0  0  0  0  0  0  0  0  0  0
   26.3630   19.4610   16.5670 C   0  0  0  0  0  0  0  0  0  0  0  0
   26.3250   20.0370   17.6500 O   0  0  0  0  0  0  0  0  0  0  0  0
   26.6630   18.1250   16.4860 N   0  0  0  0  0  0  0  0  0  0  0  0
   26.3250   17.2920   15.4440 C   0  0  0  0  0  0  0  0  0  0  0  0
   26.1680   16.0880   15.6380 O   0  0  0  0  0  0  0  0  0  0  0  0
   24.2010   17.1940   12.7550 C   0  0  0  0  0  0  0  0  0  0  0  0
   23.3260   17.8130   13.3290 O   0  0  0  0  0  0  0  0  0  0  0  0
   27.1680   14.8960    8.2890 C   0  0  0  0  0  0  0  0  0  0  0  0
   28.4080   14.4120    7.8640 C   0  0  0  0  0  0  0  0  0  0  0  0
   28.6490   14.8510    6.4580 C   0  0  0  0  0  0  0  0  0  0  0  0
   27.6140   15.8720    6.1700 N   0  0  0  0  0  0  0  0  0  0  0  0
   26.5420   15.6740    7.1770 C   0  0  0  0  0  0  0  0  0  0  0  0
   28.7270   10.4540    6.1020 C   0  0  0  0  0  0  0  0  0  0  0  0
   27.4210   10.3080    6.0090 N   0  0  0  0  0  0  0  0  0  0  0  0
   24.8497    9.5640    8.8806 H   0  0  0  0  0  0  0  0  0  0  0  0
   23.8507    9.4948    7.3893 H   0  0  0  0  0  0  0  0  0  0  0  0
   25.5127    8.8135    7.3893 H   0  0  0  0  0  0  0  0  0  0  0  0
   24.9325   11.2651    6.4118 H   0  0  0  0  0  0  0  0  0  0  0  0
   25.2238   11.6867    8.1547 H   0  0  0  0  0  0  0  0  0  0  0  0
   27.8095   12.0414    8.8292 H   0  0  0  0  0  0  0  0  0  0  0  0
   29.3247   12.7041   10.6383 H   0  0  0  0  0  0  0  0  0  0  0  0
   27.1134   13.5651   11.3986 H   0  0  0  0  0  0  0  0  0  0  0  0
   24.2462   14.2000    8.3961 H   0  0  0  0  0  0  0  0  0  0  0  0
   22.0395   15.0823    9.1395 H   0  0  0  0  0  0  0  0  0  0  0  0
   21.8765   16.5223   11.1930 H   0  0  0  0  0  0  0  0  0  0  0  0
   26.8543   15.5368   12.5407 H   0  0  0  0  0  0  0  0  0  0  0  0
   27.0834   16.9936   11.5997 H   0  0  0  0  0  0  0  0  0  0  0  0
   27.1422   18.2371   13.6765 H   0  0  0  0  0  0  0  0  0  0  0  0
   25.2523   19.7938   13.3186 H   0  0  0  0  0  0  0  0  0  0  0  0
   24.3650   19.0381   14.6848 H   0  0  0  0  0  0  0  0  0  0  0  0
   27.0629   20.4738   14.8168 H   0  0  0  0  0  0  0  0  0  0  0  0
   25.4785   21.0581   15.4645 H   0  0  0  0  0  0  0  0  0  0  0  0
   27.1852   17.7104   17.2711 H   0  0  0  0  0  0  0  0  0  0  0  0
   29.6543   15.2866    6.3598 H   0  0  0  0  0  0  0  0  0  0  0  0
   28.5912   14.0069    5.7551 H   0  0  0  0  0  0  0  0  0  0  0  0
   28.0128   16.8179    6.2549 H   0  0  0  0  0  0  0  0  0  0  0  0
   26.1785   16.6445    7.5456 H   0  0  0  0  0  0  0  0  0  0  0  0
   25.6770   15.1457    6.7496 H   0  0  0  0  0  0  0  0  0  0  0  0
   29.4520   10.1018    5.3535 H   0  0  0  0  0  0  0  0  0  0  0  0
  1  2  1  0
  2  3  1  0
  3  4  2  0
  4  5  1  0
  5  6  1  0
  6  7  2  0
  6  8  2  0
  6  9  1  0
  9 10  1  0
 10 11  2  0
 11 12  1  0
 12 13  2  0
 13 14  1  0
 14 15  2  0
 15 16  1  0
 16 17  2  0
 17 18  1  0
 18 19  2  0
 19 20  1  0
 20 21  1  0
 21 22  1  0
 22 23  1  0
 23 24  1  0
 24 25  1  0
 25 26  2  0
 25 27  1  0
 27 28  1  0
 28 29  2  0
 21 30  1  0
 30 31  2  0
 13 32  1  0
 32 33  2  0
 33 34  1  0
 34 35  1  0
 35 36  1  0
  5 37  1  0
 37 38  2  0
 38  3  1  0
 33 10  1  0
 19 14  1  0
 28 22  1  0
 36 32  1  0
 30 18  1  0
  1 39  1  0
  1 40  1  0
  1 41  1  0
  2 42  1  0
  2 43  1  0
  4 44  1  0
 11 45  1  0
 12 46  1  0
 15 47  1  0
 16 48  1  0
 17 49  1  0
 20 50  1  0
 20 51  1  0
 22 52  1  6
 23 53  1  0
 23 54  1  0
 24 55  1  0
 24 56  1  0
 27 57  1  0
 34 58  1  0
 34 59  1  0
 35 60  1  0
 36 61  1  0
 36 62  1  0
 37 63  1  0
M  END
>  <meeko>  (579) 
{"is_sidechain": [true], "free_energy": -12.06, "intermolecular_energy": 0.0, "internal_energy": -12.06, "cluster_size": 12, "cluster_id": 1, "rank_in_cluster": 1}

>  <_RMSD_MCS_to_ref>  (579) 
1.9377577821343466

$$$$
ligand
     RDKit          3D

 61 66  0  0  0  0  0  0  0  0999 V2000
   24.8540    9.4020    7.6050 C   0  0  0  0  0  0  0  0  0  0  0  0
   25.5230   10.7550    7.4270 C   0  0  0  0  0  0  0  0  0  0  0  0
   25.0070   11.4850    6.2370 C   0  0  0  0  0  0  0  0  0  0  0  0
   25.2190   12.8000    5.8650 C   0  0  0  0  0  0  0  0  0  0  0  0
   24.5370   12.9270    4.6910 N   0  0  0  0  0  0  0  0  0  0  0  0
   24.5050   14.2840    3.7020 S   0  0  0  0  0  6  0  0  0  0  0  0
   23.6460   15.2140    4.4090 O   0  0  0  0  0  0  0  0  0  0  0  0
   24.2030   13.8100    2.3660 O   0  0  0  0  0  0  0  0  0  0  0  0
   26.1700   14.9150    3.7080 C   0  0  0  0  0  0  0  0  0  0  0  0
   26.8770   14.8250    2.4960 C   0  0  0  0  0  0  0  0  0  0  0  0
   28.1580   15.3530    2.3950 C   0  0  0  0  0  0  0  0  0  0  0  0
   28.7350   15.9760    3.4970 C   0  0  0  0  0  0  0  0  0  0  0  0
   28.0460   16.0630    4.7190 C   0  0  0  0  0  0  0  0  0  0  0  0
   28.6250   16.6890    5.8240 C   0  0  0  0  0  0  0  0  0  0  0  0
   28.0360   16.8250    7.0310 N   0  0  0  0  0  0  0  0  0  0  0  0
   26.8030   16.2980    7.1850 C   0  0  0  0  0  0  0  0  0  0  0  0
   26.1720   16.4980    8.5050 C   0  0  0  0  0  0  0  0  0  0  0  0
   24.9850   15.7970    8.8460 C   0  0  0  0  0  0  0  0  0  0  0  0
   24.3610   15.9620   10.0880 C   0  0  0  0  0  0  0  0  0  0  0  0
   24.9470   16.8350   10.9800 C   0  0  0  0  0  0  0  0  0  0  0  0
   26.1170   17.5290   10.6890 C   0  0  0  0  0  0  0  0  0  0  0  0
   26.7400   17.3680    9.4620 C   0  0  0  0  0  0  0  0  0  0  0  0
   26.5250   18.3560   11.8610 C   0  0  0  0  0  0  0  0  0  0  0  0
   25.4180   18.1630   12.7880 N   0  0  0  0  0  0  0  0  0  0  0  0
   25.4950   18.6320   14.1670 C   0  0  1  0  0  0  0  0  0  0  0  0
   26.6210   17.9860   14.9740 C   0  0  0  0  0  0  0  0  0  0  0  0
   26.5720   18.4960   16.4050 C   0  0  0  0  0  0  0  0  0  0  0  0
   26.6600   20.0030   16.4530 C   0  0  0  0  0  0  0  0  0  0  0  0
   27.0510   20.6040   17.4500 O   0  0  0  0  0  0  0  0  0  0  0  0
   26.2010   20.6830   15.3530 N   0  0  0  0  0  0  0  0  0  0  0  0
   25.5990   20.1640   14.2290 C   0  0  0  0  0  0  0  0  0  0  0  0
   25.0880   20.9140   13.3980 O   0  0  0  0  0  0  0  0  0  0  0  0
   24.5290   17.1960   12.3390 C   0  0  0  0  0  0  0  0  0  0  0  0
   23.5860   16.7050   12.9270 O   0  0  0  0  0  0  0  0  0  0  0  0
   26.1630   15.6190    6.1460 C   0  0  0  0  0  0  0  0  0  0  0  0
   26.7530   15.5170    4.8620 C   0  0  0  0  0  0  0  0  0  0  0  0
   23.8890   11.7640    4.4220 C   0  0  0  0  0  0  0  0  0  0  0  0
   24.1920   10.8490    5.3190 N   0  0  0  0  0  0  0  0  0  0  0  0
   24.7464    9.1845    8.6779 H   0  0  0  0  0  0  0  0  0  0  0  0
   23.8606    9.4192    7.1330 H   0  0  0  0  0  0  0  0  0  0  0  0
   25.4708    8.6230    7.1330 H   0  0  0  0  0  0  0  0  0  0  0  0
   25.3362   11.3633    8.3242 H   0  0  0  0  0  0  0  0  0  0  0  0
   26.5990   10.5826    7.2771 H   0  0  0  0  0  0  0  0  0  0  0  0
   25.8033   13.5670    6.3943 H   0  0  0  0  0  0  0  0  0  0  0  0
   26.4149   14.3355    1.6260 H   0  0  0  0  0  0  0  0  0  0  0  0
   28.7133   15.2788    1.4484 H   0  0  0  0  0  0  0  0  0  0  0  0
   29.7437   16.4062    3.4108 H   0  0  0  0  0  0  0  0  0  0  0  0
   29.6370   17.1025    5.7022 H   0  0  0  0  0  0  0  0  0  0  0  0
   24.5436   15.1050    8.1136 H   0  0  0  0  0  0  0  0  0  0  0  0
   23.4400   15.4170   10.3423 H   0  0  0  0  0  0  0  0  0  0  0  0
   27.6684   17.9126    9.2352 H   0  0  0  0  0  0  0  0  0  0  0  0
   27.4707   17.9951   12.2915 H   0  0  0  0  0  0  0  0  0  0  0  0
   26.7057   19.4115   11.6095 H   0  0  0  0  0  0  0  0  0  0  0  0
   24.5535   18.3154   14.6395 H   0  0  0  0  0  0  0  0  0  0  0  0
   26.4959   16.8931   14.9692 H   0  0  0  0  0  0  0  0  0  0  0  0
   27.5910   18.2446   14.5243 H   0  0  0  0  0  0  0  0  0  0  0  0
   25.6259   18.1773   16.8669 H   0  0  0  0  0  0  0  0  0  0  0  0
   27.4311   18.0801   16.9518 H   0  0  0  0  0  0  0  0  0  0  0  0
   26.3215   21.7058   15.3704 H   0  0  0  0  0  0  0  0  0  0  0  0
   25.1825   15.1547    6.3279 H   0  0  0  0  0  0  0  0  0  0  0  0
   23.2065   11.6083    3.5735 H   0  0  0  0  0  0  0  0  0  0  0  0
  1  2  1  0
  2  3  1  0
  3  4  2  0
  4  5  1  0
  5  6  1  0
  6  7  2  0
  6  8  2  0
  6  9  1  0
  9 10  2  0
 10 11  1  0
 11 12  2  0
 12 13  1  0
 13 14  2  0
 14 15  1  0
 15 16  2  0
 16 17  1  0
 17 18  2  0
 18 19  1  0
 19 20  2  0
 20 21  1  0
 21 22  2  0
 21 23  1  0
 23 24  1  0
 24 25  1  0
 25 26  1  0
 26 27  1  0
 27 28  1  0
 28 29  2  0
 28 30  1  0
 30 31  1  0
 31 32  2  0
 24 33  1  0
 33 34  2  0
 16 35  1  0
 35 36  2  0
  5 37  1  0
 37 38  2  0
 38  3  1  0
 36  9  1  0
 36 13  1  0
 22 17  1  0
 31 25  1  0
 33 20  1  0
  1 39  1  0
  1 40  1  0
  1 41  1  0
  2 42  1  0
  2 43  1  0
  4 44  1  0
 10 45  1  0
 11 46  1  0
 12 47  1  0
 14 48  1  0
 18 49  1  0
 19 50  1  0
 22 51  1  0
 23 52  1  0
 23 53  1  0
 25 54  1  1
 26 55  1  0
 26 56  1  0
 27 57  1  0
 27 58  1  0
 30 59  1  0
 35 60  1  0
 37 61  1  0
M  END
>  <meeko>  (580) 
{"is_sidechain": [true], "free_energy": -12.05, "intermolecular_energy": 0.0, "internal_energy": -12.05, "cluster_size": 9, "cluster_id": 2, "rank_in_cluster": 1}

>  <_RMSD_MCS_to_ref>  (580) 
0.6733504948308038

$$$$
ligand
     RDKit          3D

 62 67  0  0  0  0  0  0  0  0999 V2000
   24.8710    9.6160    7.7820 C   0  0  0  0  0  0  0  0  0  0  0  0
   25.4240   10.9650    7.3490 C   0  0  0  0  0  0  0  0  0  0  0  0
   26.9110   10.9910    7.3620 C   0  0  0  0  0  0  0  0  0  0  0  0
   27.7610   12.0700    7.2140 C   0  0  0  0  0  0  0  0  0  0  0  0
   29.0090   11.5280    7.3460 N   0  0  0  0  0  0  0  0  0  0  0  0
   30.4620   12.3600    7.1720 S   0  0  0  0  0  6  0  0  0  0  0  0
   30.6270   12.4550    5.7300 O   0  0  0  0  0  0  0  0  0  0  0  0
   31.4370   11.6390    7.9710 O   0  0  0  0  0  0  0  0  0  0  0  0
   30.2590   13.8830    7.7400 O   0  0  0  0  0  0  0  0  0  0  0  0
   29.0190   14.2670    8.1980 C   0  0  0  0  0  0  0  0  0  0  0  0
   28.7240   13.9590    9.5260 C   0  0  0  0  0  0  0  0  0  0  0  0
   27.4940   14.3280   10.0530 C   0  0  0  0  0  0  0  0  0  0  0  0
   26.5570   15.0180    9.2670 C   0  0  0  0  0  0  0  0  0  0  0  0
   25.2760   15.3930    9.8810 C   0  0  0  0  0  0  0  0  0  0  0  0
   24.0520   15.0370    9.2790 C   0  0  0  0  0  0  0  0  0  0  0  0
   22.8170   15.3980    9.8490 C   0  0  0  0  0  0  0  0  0  0  0  0
   22.7700   16.1230   11.0390 C   0  0  0  0  0  0  0  0  0  0  0  0
   23.9760   16.4590   11.6220 C   0  0  0  0  0  0  0  0  0  0  0  0
   25.2100   16.1090   11.0720 C   0  0  0  0  0  0  0  0  0  0  0  0
   26.3130   16.6370   11.9320 C   0  0  0  0  0  0  0  0  0  0  0  0
   25.5930   17.2410   13.0460 N   0  0  0  0  0  0  0  0  0  0  0  0
   26.2180   18.1390   14.0090 C   0  0  1  0  0  0  0  0  0  0  0  0
   25.4880   19.4740   14.1220 C   0  0  0  0  0  0  0  0  0  0  0  0
   26.2440   20.3840   15.0770 C   0  0  0  0  0  0  0  0  0  0  0  0
   26.4300   19.7250   16.4250 C   0  0  0  0  0  0  0  0  0  0  0  0
   26.3920   20.3580   17.4760 O   0  0  0  0  0  0  0  0  0  0  0  0
   26.6630   18.3740   16.4200 N   0  0  0  0  0  0  0  0  0  0  0  0
   26.3200   17.5060   15.4080 C   0  0  0  0  0  0  0  0  0  0  0  0
   26.1080   16.3200   15.6540 O   0  0  0  0  0  0  0  0  0  0  0  0
   24.2200   17.2200   12.8520 C   0  0  0  0  0  0  0  0  0  0  0  0
   23.3590   17.7290   13.5430 O   0  0  0  0  0  0  0  0  0  0  0  0
   26.8800   15.3440    7.9150 C   0  0  0  0  0  0  0  0  0  0  0  0
   26.0090   16.0360    7.0450 C   0  0  0  0  0  0  0  0  0  0  0  0
   26.3910   16.3410    5.7430 C   0  0  0  0  0  0  0  0  0  0  0  0
   27.6430   15.9450    5.3320 C   0  0  0  0  0  0  0  0  0  0  0  0
   28.5090   15.2760    6.1240 N   0  0  0  0  0  0  0  0  0  0  0  0
   28.1350   14.9700    7.3830 C   0  0  0  0  0  0  0  0  0  0  0  0
   28.9000   10.1830    7.4920 C   0  0  0  0  0  0  0  0  0  0  0  0
   27.6320    9.8240    7.5330 N   0  0  0  0  0  0  0  0  0  0  0  0
   24.8497    9.5640    8.8806 H   0  0  0  0  0  0  0  0  0  0  0  0
   23.8507    9.4948    7.3893 H   0  0  0  0  0  0  0  0  0  0  0  0
   25.5127    8.8135    7.3893 H   0  0  0  0  0  0  0  0  0  0  0  0
   25.0745   11.1805    6.3285 H   0  0  0  0  0  0  0  0  0  0  0  0
   25.0660   11.7222    8.0620 H   0  0  0  0  0  0  0  0  0  0  0  0
   27.4951   13.1218    7.0321 H   0  0  0  0  0  0  0  0  0  0  0  0
   29.4589   13.4289   10.1496 H   0  0  0  0  0  0  0  0  0  0  0  0
   27.2510   14.0775   11.0962 H   0  0  0  0  0  0  0  0  0  0  0  0
   24.0625   14.4630    8.3407 H   0  0  0  0  0  0  0  0  0  0  0  0
   21.8806   15.1056    9.3513 H   0  0  0  0  0  0  0  0  0  0  0  0
   21.8123   16.4152   11.4945 H   0  0  0  0  0  0  0  0  0  0  0  0
   26.9690   15.8247   12.2781 H   0  0  0  0  0  0  0  0  0  0  0  0
   26.9746   17.3421   11.4075 H   0  0  0  0  0  0  0  0  0  0  0  0
   27.2307   18.3226   13.6207 H   0  0  0  0  0  0  0  0  0  0  0  0
   25.4329   19.9472   13.1305 H   0  0  0  0  0  0  0  0  0  0  0  0
   24.4703   19.3050   14.5038 H   0  0  0  0  0  0  0  0  0  0  0  0
   27.2315   20.6123   14.6495 H   0  0  0  0  0  0  0  0  0  0  0  0
   25.6603   21.3059   15.2166 H   0  0  0  0  0  0  0  0  0  0  0  0
   27.1349   17.9743   17.2437 H   0  0  0  0  0  0  0  0  0  0  0  0
   25.0136   16.3383    7.4025 H   0  0  0  0  0  0  0  0  0  0  0  0
   25.7146   16.8810    5.0642 H   0  0  0  0  0  0  0  0  0  0  0  0
   27.9550   16.1857    4.3050 H   0  0  0  0  0  0  0  0  0  0  0  0
   29.7506    9.4894    7.5658 H   0  0  0  0  0  0  0  0  0  0  0  0
  1  2  1  0
  2  3  1  0
  3  4  2  0
  4  5  1  0
  5  6  1  0
  6  7  2  0
  6  8  2  0
  6  9  1  0
  9 10  1  0
 10 11  2  0
 11 12  1  0
 12 13  2  0
 13 14  1  0
 14 15  2  0
 15 16  1  0
 16 17  2  0
 17 18  1  0
 18 19  2  0
 19 20  1  0
 20 21  1  0
 21 22  1  0
 22 23  1  0
 23 24  1  0
 24 25  1  0
 25 26  2  0
 25 27  1  0
 27 28  1  0
 28 29  2  0
 21 30  1  0
 30 31  2  0
 13 32  1  0
 32 33  2  0
 33 34  1  0
 34 35  2  0
 35 36  1  0
 36 37  2  0
  5 38  1  0
 38 39  2  0
 39  3  1  0
 37 10  1  0
 19 14  1  0
 28 22  1  0
 37 32  1  0
 30 18  1  0
  1 40  1  0
  1 41  1  0
  1 42  1  0
  2 43  1  0
  2 44  1  0
  4 45  1  0
 11 46  1  0
 12 47  1  0
 15 48  1  0
 16 49  1  0
 17 50  1  0
 20 51  1  0
 20 52  1  0
 22 53  1  6
 23 54  1  0
 23 55  1  0
 24 56  1  0
 24 57  1  0
 27 58  1  0
 33 59  1  0
 34 60  1  0
 35 61  1  0
 38 62  1  0
M  END
>  <meeko>  (581) 
{"is_sidechain": [true], "free_energy": -12.05, "intermolecular_energy": 0.0, "internal_energy": -12.05, "cluster_size": 11, "cluster_id": 1, "rank_in_cluster": 1}

>  <_RMSD_MCS_to_ref>  (581) 
1.8903704516428637

$$$$
ligand
     RDKit          3D

 61 66  0  0  0  0  0  0  0  0999 V2000
   24.8710    9.6160    7.7820 C   0  0  0  0  0  0  0  0  0  0  0  0
   25.4240   10.9650    7.3490 C   0  0  0  0  0  0  0  0  0  0  0  0
   25.0080   11.3240    5.9660 C   0  0  0  0  0  0  0  0  0  0  0  0
   24.5230   12.5260    5.4910 C   0  0  0  0  0  0  0  0  0  0  0  0
   24.3200   12.3030    4.1590 N   0  0  0  0  0  0  0  0  0  0  0  0
   23.4690   13.3180    3.1080 S   0  0  0  0  0  6  0  0  0  0  0  0
   23.9030   12.9140    1.7820 O   0  0  0  0  0  0  0  0  0  0  0  0
   22.0830   13.1650    3.5130 O   0  0  0  0  0  0  0  0  0  0  0  0
   24.0100   14.9420    3.4410 C   0  0  0  0  0  0  0  0  0  0  0  0
   23.6710   16.0620    2.5700 C   0  0  0  0  0  0  0  0  0  0  0  0
   24.0950   17.3110    2.8420 C   0  0  0  0  0  0  0  0  0  0  0  0
   24.8870   17.5550    4.0000 C   0  0  0  0  0  0  0  0  0  0  0  0
   25.4050   18.6700    4.4610 N   0  0  0  0  0  0  0  0  0  0  0  0
   26.0540   18.3150    5.6120 C   0  0  0  0  0  0  0  0  0  0  0  0
   25.9600   16.9570    5.8630 C   0  0  0  0  0  0  0  0  0  0  0  0
   26.4660   16.1790    6.9720 C   0  0  0  0  0  0  0  0  0  0  0  0
   27.3820   15.3680    6.8550 O   0  0  0  0  0  0  0  0  0  0  0  0
   25.8560   16.3230    8.3240 C   0  0  0  0  0  0  0  0  0  0  0  0
   24.5940   15.7600    8.6240 C   0  0  0  0  0  0  0  0  0  0  0  0
   24.0290   15.9210    9.8930 C   0  0  0  0  0  0  0  0  0  0  0  0
   24.7440   16.6540   10.8210 C   0  0  0  0  0  0  0  0  0  0  0  0
   25.9780   17.2350   10.5360 C   0  0  0  0  0  0  0  0  0  0  0  0
   26.5480   17.0850    9.2840 C   0  0  0  0  0  0  0  0  0  0  0  0
   26.4680   17.9950   11.7240 C   0  0  0  0  0  0  0  0  0  0  0  0
   25.4660   17.6880   12.7350 N   0  0  0  0  0  0  0  0  0  0  0  0
   25.4290   18.4060   14.0060 C   0  0  2  0  0  0  0  0  0  0  0  0
   26.2910   19.6680   14.0260 C   0  0  0  0  0  0  0  0  0  0  0  0
   26.1290   20.3670   15.3680 C   0  0  0  0  0  0  0  0  0  0  0  0
   26.4800   19.4430   16.5120 C   0  0  0  0  0  0  0  0  0  0  0  0
   26.8290   19.8670   17.6100 O   0  0  0  0  0  0  0  0  0  0  0  0
   26.3100   18.0990   16.2940 N   0  0  0  0  0  0  0  0  0  0  0  0
   25.7990   17.4810   15.1760 C   0  0  0  0  0  0  0  0  0  0  0  0
   25.5670   16.2730   15.1840 O   0  0  0  0  0  0  0  0  0  0  0  0
   24.3910   16.9880   12.2050 C   0  0  0  0  0  0  0  0  0  0  0  0
   23.3370   16.6980   12.7350 O   0  0  0  0  0  0  0  0  0  0  0  0
   25.1950   16.4680    4.8160 N   0  0  0  0  0  0  0  0  0  0  0  0
   24.7680   15.1670    4.5320 C   0  0  0  0  0  0  0  0  0  0  0  0
   24.6150   11.0090    3.8750 C   0  0  0  0  0  0  0  0  0  0  0  0
   25.0530   10.3870    4.9510 N   0  0  0  0  0  0  0  0  0  0  0  0
   24.8497    9.5640    8.8806 H   0  0  0  0  0  0  0  0  0  0  0  0
   23.8507    9.4948    7.3893 H   0  0  0  0  0  0  0  0  0  0  0  0
   25.5127    8.8135    7.3893 H   0  0  0  0  0  0  0  0  0  0  0  0
   25.0572   11.7372    8.0412 H   0  0  0  0  0  0  0  0  0  0  0  0
   26.5220   10.9018    7.3663 H   0  0  0  0  0  0  0  0  0  0  0  0
   24.3415   13.4520    6.0563 H   0  0  0  0  0  0  0  0  0  0  0  0
   23.0577   15.8831    1.6745 H   0  0  0  0  0  0  0  0  0  0  0  0
   23.8300   18.1412    2.1708 H   0  0  0  0  0  0  0  0  0  0  0  0
   26.5875   19.0249    6.2612 H   0  0  0  0  0  0  0  0  0  0  0  0
   24.0528   15.1913    7.8535 H   0  0  0  0  0  0  0  0  0  0  0  0
   23.0524   15.4808   10.1431 H   0  0  0  0  0  0  0  0  0  0  0  0
   27.5164   17.5490    9.0453 H   0  0  0  0  0  0  0  0  0  0  0  0
   27.4643   17.6471   12.0343 H   0  0  0  0  0  0  0  0  0  0  0  0
   26.5830   19.0727   11.5361 H   0  0  0  0  0  0  0  0  0  0  0  0
   24.3885   18.7419   14.1263 H   0  0  0  0  0  0  0  0  0  0  0  0
   27.3463   19.3944   13.8793 H   0  0  0  0  0  0  0  0  0  0  0  0
   25.9736   20.3437   13.2181 H   0  0  0  0  0  0  0  0  0  0  0  0
   26.7928   21.2436   15.3983 H   0  0  0  0  0  0  0  0  0  0  0  0
   25.0778   20.6722   15.4769 H   0  0  0  0  0  0  0  0  0  0  0  0
   26.6006   17.4765   17.0614 H   0  0  0  0  0  0  0  0  0  0  0  0
   25.0486   14.3343    5.1937 H   0  0  0  0  0  0  0  0  0  0  0  0
   24.5039   10.5441    2.8843 H   0  0  0  0  0  0  0  0  0  0  0  0
  1  2  1  0
  2  3  1  0
  3  4  2  0
  4  5  1  0
  5  6  1  0
  6  7  2  0
  6  8  2  0
  6  9  1  0
  9 10  1  0
 10 11  2  0
 11 12  1  0
 12 13  2  0
 13 14  1  0
 14 15  2  0
 15 16  1  0
 16 17  2  0
 16 18  1  0
 18 19  2  0
 19 20  1  0
 20 21  2  0
 21 22  1  0
 22 23  2  0
 22 24  1  0
 24 25  1  0
 25 26  1  0
 26 27  1  0
 27 28  1  0
 28 29  1  0
 29 30  2  0
 29 31  1  0
 31 32  1  0
 32 33  2  0
 25 34  1  0
 34 35  2  0
 15 36  1  0
 36 37  1  0
  5 38  1  0
 38 39  2  0
 39  3  1  0
 37  9  2  0
 36 12  1  0
 23 18  1  0
 32 26  1  0
 34 21  1  0
  1 40  1  0
  1 41  1  0
  1 42  1  0
  2 43  1  0
  2 44  1  0
  4 45  1  0
 10 46  1  0
 11 47  1  0
 14 48  1  0
 19 49  1  0
 20 50  1  0
 23 51  1  0
 24 52  1  0
 24 53  1  0
 26 54  1  1
 27 55  1  0
 27 56  1  0
 28 57  1  0
 28 58  1  0
 31 59  1  0
 37 60  1  0
 38 61  1  0
M  END
>  <meeko>  (582) 
{"is_sidechain": [true], "free_energy": -12.05, "intermolecular_energy": 0.0, "internal_energy": -12.05, "cluster_size": 10, "cluster_id": 1, "rank_in_cluster": 1}

>  <_RMSD_MCS_to_ref>  (582) 
1.7711543812173074

$$$$
ligand
     RDKit          3D

 60 65  0  0  0  0  0  0  0  0999 V2000
   24.8710    9.6160    7.7820 C   0  0  0  0  0  0  0  0  0  0  0  0
   25.4240   10.9650    7.3490 C   0  0  0  0  0  0  0  0  0  0  0  0
   25.0440   11.3090    5.9520 C   0  0  0  0  0  0  0  0  0  0  0  0
   24.4330   12.4520    5.4770 C   0  0  0  0  0  0  0  0  0  0  0  0
   24.3380   12.2460    4.1290 N   0  0  0  0  0  0  0  0  0  0  0  0
   23.4360   13.1910    3.0680 S   0  0  0  0  0  6  0  0  0  0  0  0
   23.6420   12.6300    1.7450 O   0  0  0  0  0  0  0  0  0  0  0  0
   22.1090   13.1910    3.6600 O   0  0  0  0  0  0  0  0  0  0  0  0
   23.9970   14.7250    3.1390 O   0  0  0  0  0  0  0  0  0  0  0  0
   25.3010   15.0240    3.4700 C   0  0  0  0  0  0  0  0  0  0  0  0
   26.2690   15.0720    2.5330 C   0  0  0  0  0  0  0  0  0  0  0  0
   27.6450   15.4000    2.8750 C   0  0  0  0  0  0  0  0  0  0  0  0
   27.9450   15.6810    4.1540 C   0  0  0  0  0  0  0  0  0  0  0  0
   26.9320   15.6600    5.1100 N   0  0  0  0  0  0  0  0  0  0  0  0
   27.0000   15.9210    6.4530 C   0  0  0  0  0  0  0  0  0  0  0  0
   25.7110   15.7860    6.9280 C   0  0  0  0  0  0  0  0  0  0  0  0
   25.2820   15.9640    8.3080 C   0  0  0  0  0  0  0  0  0  0  0  0
   24.1800   15.2200    8.7910 C   0  0  0  0  0  0  0  0  0  0  0  0
   23.7280   15.3350   10.1130 C   0  0  0  0  0  0  0  0  0  0  0  0
   24.3930   16.2070   10.9510 C   0  0  0  0  0  0  0  0  0  0  0  0
   25.4760   16.9400   10.4740 C   0  0  0  0  0  0  0  0  0  0  0  0
   25.9410   16.8450    9.1750 C   0  0  0  0  0  0  0  0  0  0  0  0
   25.9790   17.7730   11.5710 C   0  0  0  0  0  0  0  0  0  0  0  0
   26.8870   18.5770   11.4770 O   0  0  0  0  0  0  0  0  0  0  0  0
   25.2270   17.4580   12.6930 N   0  0  0  0  0  0  0  0  0  0  0  0
   25.2810   18.2610   13.9090 C   0  0  2  0  0  0  0  0  0  0  0  0
   25.9610   19.6090   13.6860 C   0  0  0  0  0  0  0  0  0  0  0  0
   25.8970   20.4240   14.9700 C   0  0  0  0  0  0  0  0  0  0  0  0
   26.5090   19.6670   16.1270 C   0  0  0  0  0  0  0  0  0  0  0  0
   27.1360   20.2290   17.0200 O   0  0  0  0  0  0  0  0  0  0  0  0
   26.3120   18.3100   16.1450 N   0  0  0  0  0  0  0  0  0  0  0  0
   25.9910   17.5270   15.0600 C   0  0  0  0  0  0  0  0  0  0  0  0
   26.2760   16.3310   15.0530 O   0  0  0  0  0  0  0  0  0  0  0  0
   24.1360   16.5420   12.3820 C   0  0  0  0  0  0  0  0  0  0  0  0
   24.8490   15.4550    5.8990 N   0  0  0  0  0  0  0  0  0  0  0  0
   25.6050   15.3580    4.8240 C   0  0  0  0  0  0  0  0  0  0  0  0
   24.8000   11.0040    3.8380 C   0  0  0  0  0  0  0  0  0  0  0  0
   25.2720   10.4190    4.9210 N   0  0  0  0  0  0  0  0  0  0  0  0
   24.8497    9.5640    8.8806 H   0  0  0  0  0  0  0  0  0  0  0  0
   23.8507    9.4948    7.3893 H   0  0  0  0  0  0  0  0  0  0  0  0
   25.5127    8.8135    7.3893 H   0  0  0  0  0  0  0  0  0  0  0  0
   25.0324   11.7408    8.0234 H   0  0  0  0  0  0  0  0  0  0  0  0
   26.5216   10.9093    7.3952 H   0  0  0  0  0  0  0  0  0  0  0  0
   24.0989   13.3283    6.0518 H   0  0  0  0  0  0  0  0  0  0  0  0
   26.0127   14.8581    1.4849 H   0  0  0  0  0  0  0  0  0  0  0  0
   28.4255   15.4175    2.1001 H   0  0  0  0  0  0  0  0  0  0  0  0
   28.9780   15.9247    4.4428 H   0  0  0  0  0  0  0  0  0  0  0  0
   27.8968   16.1839    7.0332 H   0  0  0  0  0  0  0  0  0  0  0  0
   23.6620   14.5302    8.1084 H   0  0  0  0  0  0  0  0  0  0  0  0
   22.8695   14.7481   10.4715 H   0  0  0  0  0  0  0  0  0  0  0  0
   26.8000   17.4415    8.8339 H   0  0  0  0  0  0  0  0  0  0  0  0
   24.2316   18.4352   14.1889 H   0  0  0  0  0  0  0  0  0  0  0  0
   27.0123   19.4481   13.4051 H   0  0  0  0  0  0  0  0  0  0  0  0
   25.4467   20.1519   12.8793 H   0  0  0  0  0  0  0  0  0  0  0  0
   26.4472   21.3655   14.8256 H   0  0  0  0  0  0  0  0  0  0  0  0
   24.8411   20.6249   15.2037 H   0  0  0  0  0  0  0  0  0  0  0  0
   26.4135   17.8339   17.0527 H   0  0  0  0  0  0  0  0  0  0  0  0
   24.1792   15.6431   13.0146 H   0  0  0  0  0  0  0  0  0  0  0  0
   23.1390   16.9715   12.5594 H   0  0  0  0  0  0  0  0  0  0  0  0
   24.7831   10.5482    2.8370 H   0  0  0  0  0  0  0  0  0  0  0  0
  1  2  1  0
  2  3  1  0
  3  4  2  0
  4  5  1  0
  5  6  1  0
  6  7  2  0
  6  8  2  0
  6  9  1  0
  9 10  1  0
 10 11  2  0
 11 12  1  0
 12 13  2  0
 13 14  1  0
 14 15  1  0
 15 16  2  0
 16 17  1  0
 17 18  2  0
 18 19  1  0
 19 20  2  0
 20 21  1  0
 21 22  2  0
 21 23  1  0
 23 24  2  0
 23 25  1  0
 25 26  1  0
 26 27  1  0
 27 28  1  0
 28 29  1  0
 29 30  2  0
 29 31  1  0
 31 32  1  0
 32 33  2  0
 25 34  1  0
 16 35  1  0
 35 36  2  0
  5 37  1  0
 37 38  2  0
 38  3  1  0
 36 10  1  0
 36 14  1  0
 22 17  1  0
 32 26  1  0
 34 20  1  0
  1 39  1  0
  1 40  1  0
  1 41  1  0
  2 42  1  0
  2 43  1  0
  4 44  1  0
 11 45  1  0
 12 46  1  0
 13 47  1  0
 15 48  1  0
 18 49  1  0
 19 50  1  0
 22 51  1  0
 26 52  1  1
 27 53  1  0
 27 54  1  0
 28 55  1  0
 28 56  1  0
 31 57  1  0
 34 58  1  0
 34 59  1  0
 37 60  1  0
M  END
>  <meeko>  (583) 
{"is_sidechain": [true], "free_energy": -12.04, "intermolecular_energy": 0.0, "internal_energy": -12.04, "cluster_size": 1, "cluster_id": 2, "rank_in_cluster": 1}

>  <_RMSD_MCS_to_ref>  (583) 
1.7150044703537464

$$$$
ligand
     RDKit          3D

 49 52  0  0  0  0  0  0  0  0999 V2000
   24.8710    9.6160    7.7820 C   0  0  0  0  0  0  0  0  0  0  0  0
   25.4240   10.9650    7.3490 C   0  0  0  0  0  0  0  0  0  0  0  0
   26.4570   11.4780    8.2900 C   0  0  0  0  0  0  0  0  0  0  0  0
   27.2060   12.6360    8.2110 C   0  0  0  0  0  0  0  0  0  0  0  0
   27.9660   12.6200    9.3460 N   0  0  0  0  0  0  0  0  0  0  0  0
   29.2450   13.6600    9.6880 S   0  0  0  0  0  6  0  0  0  0  0  0
   30.1350   13.5470    8.5480 O   0  0  0  0  0  0  0  0  0  0  0  0
   29.6790   13.2920   11.0230 O   0  0  0  0  0  0  0  0  0  0  0  0
   28.6110   15.1590    9.7260 O   0  0  0  0  0  0  0  0  0  0  0  0
   27.3560   15.3570   10.0950 C   0  0  0  0  0  0  0  0  0  0  0  0
   26.7080   15.8810   11.1930 C   0  0  0  0  0  0  0  0  0  0  0  0
   25.3100   15.7900   10.9300 C   0  0  0  0  0  0  0  0  0  0  0  0
   24.1080   16.1150   11.5950 C   0  0  0  0  0  0  0  0  0  0  0  0
   24.0820   16.7690   12.9230 C   0  0  0  0  0  0  0  0  0  0  0  0
   23.0970   16.6630   13.6440 O   0  0  0  0  0  0  0  0  0  0  0  0
   25.1810   17.5260   13.2540 N   0  0  0  0  0  0  0  0  0  0  0  0
   25.1940   18.3450   14.4580 C   0  0  1  0  0  0  0  0  0  0  0  0
   25.9870   17.6950   15.5870 C   0  0  0  0  0  0  0  0  0  0  0  0
   25.9970   18.6160   16.7960 C   0  0  0  0  0  0  0  0  0  0  0  0
   26.5380   19.9810   16.4430 C   0  0  0  0  0  0  0  0  0  0  0  0
   27.1760   20.6630   17.2400 O   0  0  0  0  0  0  0  0  0  0  0  0
   26.2530   20.4490   15.1860 N   0  0  0  0  0  0  0  0  0  0  0  0
   25.8240   19.6980   14.1190 C   0  0  0  0  0  0  0  0  0  0  0  0
   25.9300   20.1110   12.9640 O   0  0  0  0  0  0  0  0  0  0  0  0
   22.8800   15.7840   10.9880 C   0  0  0  0  0  0  0  0  0  0  0  0
   22.8370   15.1770    9.7320 C   0  0  0  0  0  0  0  0  0  0  0  0
   24.0140   14.8690    9.0440 C   0  0  0  0  0  0  0  0  0  0  0  0
   25.2140   15.1840    9.6800 C   0  0  0  0  0  0  0  0  0  0  0  0
   26.4510   14.9370    9.1720 O   0  0  0  0  0  0  0  0  0  0  0  0
   27.7350   11.4640   10.0200 C   0  0  0  0  0  0  0  0  0  0  0  0
   26.8000   10.7590    9.4180 N   0  0  0  0  0  0  0  0  0  0  0  0
   24.8497    9.5640    8.8806 H   0  0  0  0  0  0  0  0  0  0  0  0
   23.8507    9.4948    7.3893 H   0  0  0  0  0  0  0  0  0  0  0  0
   25.5127    8.8135    7.3893 H   0  0  0  0  0  0  0  0  0  0  0  0
   25.8750   10.8592    6.3513 H   0  0  0  0  0  0  0  0  0  0  0  0
   24.5911   11.6834    7.3379 H   0  0  0  0  0  0  0  0  0  0  0  0
   27.1933   13.3966    7.4164 H   0  0  0  0  0  0  0  0  0  0  0  0
   27.1793   16.2908   12.0985 H   0  0  0  0  0  0  0  0  0  0  0  0
   26.0083   17.5136   12.6406 H   0  0  0  0  0  0  0  0  0  0  0  0
   24.1566   18.4626   14.8043 H   0  0  0  0  0  0  0  0  0  0  0  0
   25.5190   16.7375   15.8595 H   0  0  0  0  0  0  0  0  0  0  0  0
   27.0201   17.5170   15.2536 H   0  0  0  0  0  0  0  0  0  0  0  0
   24.9690   18.7245   17.1720 H   0  0  0  0  0  0  0  0  0  0  0  0
   26.6482   18.1730   17.5639 H   0  0  0  0  0  0  0  0  0  0  0  0
   26.3719   21.4597   15.0268 H   0  0  0  0  0  0  0  0  0  0  0  0
   21.9396   16.0078   11.5129 H   0  0  0  0  0  0  0  0  0  0  0  0
   21.8642   14.9379    9.2776 H   0  0  0  0  0  0  0  0  0  0  0  0
   23.9945   14.4007    8.0489 H   0  0  0  0  0  0  0  0  0  0  0  0
   28.2559   11.1593   10.9397 H   0  0  0  0  0  0  0  0  0  0  0  0
  1  2  1  0
  2  3  1  0
  3  4  2  0
  4  5  1  0
  5  6  1  0
  6  7  2  0
  6  8  2  0
  6  9  1  0
  9 10  1  0
 10 11  2  0
 11 12  1  0
 12 13  2  0
 13 14  1  0
 14 15  2  0
 14 16  1  0
 16 17  1  0
 17 18  1  0
 18 19  1  0
 19 20  1  0
 20 21  2  0
 20 22  1  0
 22 23  1  0
 23 24  2  0
 13 25  1  0
 25 26  2  0
 26 27  1  0
 27 28  2  0
 28 29  1  0
  5 30  1  0
 30 31  2  0
 31  3  1  0
 29 10  1  0
 28 12  1  0
 23 17  1  0
  1 32  1  0
  1 33  1  0
  1 34  1  0
  2 35  1  0
  2 36  1  0
  4 37  1  0
 11 38  1  0
 16 39  1  0
 17 40  1  1
 18 41  1  0
 18 42  1  0
 19 43  1  0
 19 44  1  0
 22 45  1  0
 25 46  1  0
 26 47  1  0
 27 48  1  0
 30 49  1  0
M  END
>  <meeko>  (584) 
{"is_sidechain": [true], "free_energy": -12.04, "intermolecular_energy": 0.0, "internal_energy": -12.04, "cluster_size": 18, "cluster_id": 1, "rank_in_cluster": 1}

>  <_RMSD_MCS_to_ref>  (584) 
0.6631800492911241

$$$$
ligand
     RDKit          3D

 57 61  0  0  0  0  0  0  0  0999 V2000
   24.8540    9.4020    7.6050 C   0  0  0  0  0  0  0  0  0  0  0  0
   25.5230   10.7550    7.4270 C   0  0  0  0  0  0  0  0  0  0  0  0
   27.0020   10.6740    7.5690 C   0  0  0  0  0  0  0  0  0  0  0  0
   27.8800   11.6170    8.0650 C   0  0  0  0  0  0  0  0  0  0  0  0
   29.1020   11.0140    7.9810 N   0  0  0  0  0  0  0  0  0  0  0  0
   30.5840   11.7630    8.2110 S   0  0  0  0  0  6  0  0  0  0  0  0
   31.2580   11.0390    9.2680 O   0  0  0  0  0  0  0  0  0  0  0  0
   31.1500   11.9680    6.8930 O   0  0  0  0  0  0  0  0  0  0  0  0
   30.3150   13.3480    8.8540 C   0  0  0  0  0  0  0  0  0  0  0  0
   31.3180   14.2500    9.1370 C   0  0  0  0  0  0  0  0  0  0  0  0
   30.6940   15.7210    9.7440 S   0  0  0  0  0  0  0  0  0  0  0  0
   29.0730   15.1650    9.6430 C   0  0  0  0  0  0  0  0  0  0  0  0
   27.9270   15.9900   10.0360 C   0  0  0  0  0  0  0  0  0  0  0  0
   28.0660   17.1880   10.2590 O   0  0  0  0  0  0  0  0  0  0  0  0
   26.7250   15.3050   10.1190 N   0  0  0  0  0  0  0  0  0  0  0  0
   25.4580   15.8040   10.4830 C   0  0  0  0  0  0  0  0  0  0  0  0
   24.3090   15.6830    9.6860 C   0  0  0  0  0  0  0  0  0  0  0  0
   23.0690   16.2180   10.0930 C   0  0  0  0  0  0  0  0  0  0  0  0
   22.9460   16.8850   11.3080 C   0  0  0  0  0  0  0  0  0  0  0  0
   24.0830   16.9880   12.0830 C   0  0  0  0  0  0  0  0  0  0  0  0
   25.3200   16.4640   11.6970 C   0  0  0  0  0  0  0  0  0  0  0  0
   26.3290   16.7700   12.7570 C   0  0  0  0  0  0  0  0  0  0  0  0
   25.5390   17.3980   13.8040 N   0  0  0  0  0  0  0  0  0  0  0  0
   26.1730   18.0590   14.9410 C   0  0  2  0  0  0  0  0  0  0  0  0
   25.2340   18.2930   16.1240 C   0  0  0  0  0  0  0  0  0  0  0  0
   26.0120   18.9270   17.2660 C   0  0  0  0  0  0  0  0  0  0  0  0
   26.6780   20.2120   16.8310 C   0  0  0  0  0  0  0  0  0  0  0  0
   27.0030   21.0840   17.6310 O   0  0  0  0  0  0  0  0  0  0  0  0
   26.9840   20.3260   15.4970 N   0  0  0  0  0  0  0  0  0  0  0  0
   26.8450   19.3740   14.5150 C   0  0  0  0  0  0  0  0  0  0  0  0
   27.3390   19.5510   13.4020 O   0  0  0  0  0  0  0  0  0  0  0  0
   24.2380   17.6330   13.3910 C   0  0  0  0  0  0  0  0  0  0  0  0
   23.3650   18.2600   13.9590 O   0  0  0  0  0  0  0  0  0  0  0  0
   29.0220   13.8730    9.1490 C   0  0  0  0  0  0  0  0  0  0  0  0
   28.9580    9.7930    7.4070 C   0  0  0  0  0  0  0  0  0  0  0  0
   27.6890    9.5470    7.1590 N   0  0  0  0  0  0  0  0  0  0  0  0
   24.7464    9.1845    8.6779 H   0  0  0  0  0  0  0  0  0  0  0  0
   23.8606    9.4192    7.1330 H   0  0  0  0  0  0  0  0  0  0  0  0
   25.4708    8.6230    7.1330 H   0  0  0  0  0  0  0  0  0  0  0  0
   25.2839   11.1392    6.4244 H   0  0  0  0  0  0  0  0  0  0  0  0
   25.1445   11.4248    8.2132 H   0  0  0  0  0  0  0  0  0  0  0  0
   27.6480   12.6241    8.4418 H   0  0  0  0  0  0  0  0  0  0  0  0
   32.3893   14.0479    8.9902 H   0  0  0  0  0  0  0  0  0  0  0  0
   26.7624   14.3027    9.8846 H   0  0  0  0  0  0  0  0  0  0  0  0
   24.3772   15.1587    8.7214 H   0  0  0  0  0  0  0  0  0  0  0  0
   22.1890   16.1067    9.4424 H   0  0  0  0  0  0  0  0  0  0  0  0
   21.9861   17.3108   11.6357 H   0  0  0  0  0  0  0  0  0  0  0  0
   26.8066   15.8492   13.1231 H   0  0  0  0  0  0  0  0  0  0  0  0
   27.1494   17.4083   12.3971 H   0  0  0  0  0  0  0  0  0  0  0  0
   26.9433   17.3586   15.2962 H   0  0  0  0  0  0  0  0  0  0  0  0
   24.4180   18.9643   15.8181 H   0  0  0  0  0  0  0  0  0  0  0  0
   24.8118   17.3326   16.4546 H   0  0  0  0  0  0  0  0  0  0  0  0
   25.3204   19.1443   18.0934 H   0  0  0  0  0  0  0  0  0  0  0  0
   26.7936   18.2224   17.5864 H   0  0  0  0  0  0  0  0  0  0  0  0
   27.3636   21.2349   15.1958 H   0  0  0  0  0  0  0  0  0  0  0  0
   28.0871   13.3127    9.0003 H   0  0  0  0  0  0  0  0  0  0  0  0
   29.7859    9.1050    7.1806 H   0  0  0  0  0  0  0  0  0  0  0  0
  1  2  1  0
  2  3  1  0
  3  4  2  0
  4  5  1  0
  5  6  1  0
  6  7  2  0
  6  8  2  0
  6  9  1  0
  9 10  2  0
 10 11  1  0
 11 12  1  0
 12 13  1  0
 13 14  2  0
 13 15  1  0
 15 16  1  0
 16 17  2  0
 17 18  1  0
 18 19  2  0
 19 20  1  0
 20 21  2  0
 21 22  1  0
 22 23  1  0
 23 24  1  0
 24 25  1  0
 25 26  1  0
 26 27  1  0
 27 28  2  0
 27 29  1  0
 29 30  1  0
 30 31  2  0
 23 32  1  0
 32 33  2  0
 12 34  2  0
  5 35  1  0
 35 36  2  0
 36  3  1  0
 34  9  1  0
 21 16  1  0
 30 24  1  0
 32 20  1  0
  1 37  1  0
  1 38  1  0
  1 39  1  0
  2 40  1  0
  2 41  1  0
  4 42  1  0
 10 43  1  0
 15 44  1  0
 17 45  1  0
 18 46  1  0
 19 47  1  0
 22 48  1  0
 22 49  1  0
 24 50  1  1
 25 51  1  0
 25 52  1  0
 26 53  1  0
 26 54  1  0
 29 55  1  0
 34 56  1  0
 35 57  1  0
M  END
>  <meeko>  (585) 
{"is_sidechain": [true], "free_energy": -12.03, "intermolecular_energy": 0.0, "internal_energy": -12.03, "cluster_size": 4, "cluster_id": 1, "rank_in_cluster": 1}

>  <_RMSD_MCS_to_ref>  (585) 
1.4832764829929703

$$$$
ligand
     RDKit          3D

 62 67  0  0  0  0  0  0  0  0999 V2000
   24.8540    9.4020    7.6050 C   0  0  0  0  0  0  0  0  0  0  0  0
   25.5230   10.7550    7.4270 C   0  0  0  0  0  0  0  0  0  0  0  0
   25.4670   11.2290    6.0180 C   0  0  0  0  0  0  0  0  0  0  0  0
   24.4350   11.8650    5.3540 C   0  0  0  0  0  0  0  0  0  0  0  0
   24.9150   12.0520    4.0910 N   0  0  0  0  0  0  0  0  0  0  0  0
   24.1880   12.9760    2.8910 S   0  0  0  0  0  6  0  0  0  0  0  0
   24.8830   12.6500    1.6610 O   0  0  0  0  0  0  0  0  0  0  0  0
   22.7590   12.7880    3.0510 O   0  0  0  0  0  0  0  0  0  0  0  0
   24.5920   14.6410    3.3420 C   0  0  0  0  0  0  0  0  0  0  0  0
   24.9580   15.5560    2.3600 C   0  0  0  0  0  0  0  0  0  0  0  0
   25.2720   16.8650    2.7340 C   0  0  0  0  0  0  0  0  0  0  0  0
   25.2440   17.2830    4.0610 C   0  0  0  0  0  0  0  0  0  0  0  0
   25.5450   18.5520    4.3320 N   0  0  0  0  0  0  0  0  0  0  0  0
   25.5010   18.9200    5.6170 C   0  0  0  0  0  0  0  0  0  0  0  0
   25.1940   18.1330    6.6520 N   0  0  0  0  0  0  0  0  0  0  0  0
   24.9070   16.8480    6.3760 C   0  0  0  0  0  0  0  0  0  0  0  0
   24.6130   15.9530    7.4410 N   0  0  0  0  0  0  0  0  0  0  0  0
   24.5360   16.2340    8.8270 C   0  0  0  0  0  0  0  0  0  0  0  0
   23.4530   15.8050    9.6270 C   0  0  0  0  0  0  0  0  0  0  0  0
   23.4130   16.0270   11.0130 C   0  0  0  0  0  0  0  0  0  0  0  0
   24.4900   16.6620   11.5990 C   0  0  0  0  0  0  0  0  0  0  0  0
   25.5730   17.0520   10.8180 C   0  0  0  0  0  0  0  0  0  0  0  0
   25.6320   16.8460    9.4520 C   0  0  0  0  0  0  0  0  0  0  0  0
   26.5660   17.6780   11.6970 C   0  0  0  0  0  0  0  0  0  0  0  0
   27.6120   18.1750   11.3260 O   0  0  0  0  0  0  0  0  0  0  0  0
   26.0740   17.5820   12.9910 N   0  0  0  0  0  0  0  0  0  0  0  0
   26.6760   18.3110   14.1010 C   0  0  2  0  0  0  0  0  0  0  0  0
   26.2150   17.7910   15.4580 C   0  0  0  0  0  0  0  0  0  0  0  0
   26.9520   18.5370   16.5610 C   0  0  0  0  0  0  0  0  0  0  0  0
   26.7580   20.0300   16.4340 C   0  0  0  0  0  0  0  0  0  0  0  0
   26.6620   20.7660   17.4100 O   0  0  0  0  0  0  0  0  0  0  0  0
   26.7110   20.5350   15.1590 N   0  0  0  0  0  0  0  0  0  0  0  0
   26.3980   19.8230   14.0240 C   0  0  0  0  0  0  0  0  0  0  0  0
   25.9240   20.3940   13.0450 O   0  0  0  0  0  0  0  0  0  0  0  0
   24.7230   17.0380   13.0240 C   0  0  0  0  0  0  0  0  0  0  0  0
   24.9030   16.3530    5.0560 C   0  0  0  0  0  0  0  0  0  0  0  0
   24.5720   15.0240    4.6840 C   0  0  0  0  0  0  0  0  0  0  0  0
   26.1900   11.5910    4.0240 C   0  0  0  0  0  0  0  0  0  0  0  0
   26.5540   11.0740    5.1790 N   0  0  0  0  0  0  0  0  0  0  0  0
   24.7464    9.1845    8.6779 H   0  0  0  0  0  0  0  0  0  0  0  0
   23.8606    9.4192    7.1330 H   0  0  0  0  0  0  0  0  0  0  0  0
   25.4708    8.6230    7.1330 H   0  0  0  0  0  0  0  0  0  0  0  0
   25.0133   11.4892    8.0682 H   0  0  0  0  0  0  0  0  0  0  0  0
   26.5818   10.6472    7.7050 H   0  0  0  0  0  0  0  0  0  0  0  0
   23.4515   12.1542    5.7529 H   0  0  0  0  0  0  0  0  0  0  0  0
   24.9996   15.2529    1.3034 H   0  0  0  0  0  0  0  0  0  0  0  0
   25.5505   17.5889    1.9540 H   0  0  0  0  0  0  0  0  0  0  0  0
   25.7401   19.9696    5.8430 H   0  0  0  0  0  0  0  0  0  0  0  0
   24.4331   14.9757    7.1700 H   0  0  0  0  0  0  0  0  0  0  0  0
   22.6135   15.2797    9.1481 H   0  0  0  0  0  0  0  0  0  0  0  0
   22.5497   15.7048   11.6138 H   0  0  0  0  0  0  0  0  0  0  0  0
   26.5143   17.1537    8.8716 H   0  0  0  0  0  0  0  0  0  0  0  0
   27.7585   18.1403   14.0058 H   0  0  0  0  0  0  0  0  0  0  0  0
   25.1323   17.9534   15.5649 H   0  0  0  0  0  0  0  0  0  0  0  0
   26.4322   16.7153   15.5329 H   0  0  0  0  0  0  0  0  0  0  0  0
   26.5668   18.2068   17.5370 H   0  0  0  0  0  0  0  0  0  0  0  0
   28.0261   18.3164   16.4735 H   0  0  0  0  0  0  0  0  0  0  0  0
   26.9292   21.5347   15.0413 H   0  0  0  0  0  0  0  0  0  0  0  0
   24.6649   16.1582   13.6817 H   0  0  0  0  0  0  0  0  0  0  0  0
   23.9765   17.7429   13.4187 H   0  0  0  0  0  0  0  0  0  0  0  0
   24.2981   14.2916    5.4577 H   0  0  0  0  0  0  0  0  0  0  0  0
   26.8293   11.6421    3.1303 H   0  0  0  0  0  0  0  0  0  0  0  0
  1  2  1  0
  2  3  1  0
  3  4  2  0
  4  5  1  0
  5  6  1  0
  6  7  2  0
  6  8  2  0
  6  9  1  0
  9 10  2  0
 10 11  1  0
 11 12  2  0
 12 13  1  0
 13 14  2  0
 14 15  1  0
 15 16  2  0
 16 17  1  0
 17 18  1  0
 18 19  2  0
 19 20  1  0
 20 21  2  0
 21 22  1  0
 22 23  2  0
 22 24  1  0
 24 25  2  0
 24 26  1  0
 26 27  1  0
 27 28  1  0
 28 29  1  0
 29 30  1  0
 30 31  2  0
 30 32  1  0
 32 33  1  0
 33 34  2  0
 26 35  1  0
 16 36  1  0
 36 37  2  0
  5 38  1  0
 38 39  2  0
 39  3  1  0
 37  9  1  0
 36 12  1  0
 23 18  1  0
 33 27  1  0
 35 21  1  0
  1 40  1  0
  1 41  1  0
  1 42  1  0
  2 43  1  0
  2 44  1  0
  4 45  1  0
 10 46  1  0
 11 47  1  0
 14 48  1  0
 17 49  1  0
 19 50  1  0
 20 51  1  0
 23 52  1  0
 27 53  1  1
 28 54  1  0
 28 55  1  0
 29 56  1  0
 29 57  1  0
 32 58  1  0
 35 59  1  0
 35 60  1  0
 37 61  1  0
 38 62  1  0
M  END
>  <meeko>  (586) 
{"is_sidechain": [true], "free_energy": -12.03, "intermolecular_energy": 0.0, "internal_energy": -12.03, "cluster_size": 18, "cluster_id": 1, "rank_in_cluster": 1}

>  <_RMSD_MCS_to_ref>  (586) 
1.1053813318890846

$$$$
ligand
     RDKit          3D

 60 65  0  0  0  0  0  0  0  0999 V2000
   24.8710    9.6160    7.7820 C   0  0  0  0  0  0  0  0  0  0  0  0
   25.4240   10.9650    7.3490 C   0  0  0  0  0  0  0  0  0  0  0  0
   26.7570   10.8440    6.7000 C   0  0  0  0  0  0  0  0  0  0  0  0
   27.9920   11.2460    7.1700 C   0  0  0  0  0  0  0  0  0  0  0  0
   28.8640   10.8640    6.1900 N   0  0  0  0  0  0  0  0  0  0  0  0
   30.4860   11.3120    6.0880 S   0  0  0  0  0  6  0  0  0  0  0  0
   31.1510   10.5310    7.1140 O   0  0  0  0  0  0  0  0  0  0  0  0
   30.8230   11.1650    4.6840 O   0  0  0  0  0  0  0  0  0  0  0  0
   30.5400   12.8910    6.4910 O   0  0  0  0  0  0  0  0  0  0  0  0
   29.6010   13.4810    7.2590 C   0  0  0  0  0  0  0  0  0  0  0  0
   29.5390   13.5260    8.6320 C   0  0  0  0  0  0  0  0  0  0  0  0
   28.4370   14.2140    9.0260 O   0  0  0  0  0  0  0  0  0  0  0  0
   27.7770   14.6210    7.8980 C   0  0  0  0  0  0  0  0  0  0  0  0
   26.5810   15.3600    7.8600 C   0  0  0  0  0  0  0  0  0  0  0  0
   25.8840   15.7960    9.0780 C   0  0  0  0  0  0  0  0  0  0  0  0
   24.5210   15.4660    9.3010 C   0  0  0  0  0  0  0  0  0  0  0  0
   23.8330   15.8670   10.4560 C   0  0  0  0  0  0  0  0  0  0  0  0
   24.5220   16.5990   11.4010 C   0  0  0  0  0  0  0  0  0  0  0  0
   25.8600   16.9230   11.1910 C   0  0  0  0  0  0  0  0  0  0  0  0
   26.5580   16.5450   10.0590 C   0  0  0  0  0  0  0  0  0  0  0  0
   26.3280   17.6960   12.3450 C   0  0  0  0  0  0  0  0  0  0  0  0
   27.4390   18.1760   12.4630 O   0  0  0  0  0  0  0  0  0  0  0  0
   25.2740   17.7540   13.2450 N   0  0  0  0  0  0  0  0  0  0  0  0
   25.2920   18.6440   14.4000 C   0  0  2  0  0  0  0  0  0  0  0  0
   26.0930   19.9170   14.1420 C   0  0  0  0  0  0  0  0  0  0  0  0
   25.9880   20.8330   15.3520 C   0  0  0  0  0  0  0  0  0  0  0  0
   26.4370   20.1280   16.6110 C   0  0  0  0  0  0  0  0  0  0  0  0
   27.0370   20.7100   17.5090 O   0  0  0  0  0  0  0  0  0  0  0  0
   26.1230   18.7970   16.7130 N   0  0  0  0  0  0  0  0  0  0  0  0
   25.8420   17.9560   15.6610 C   0  0  0  0  0  0  0  0  0  0  0  0
   26.0400   16.7470   15.7650 O   0  0  0  0  0  0  0  0  0  0  0  0
   24.0550   17.1710   12.6980 C   0  0  0  0  0  0  0  0  0  0  0  0
   26.1000   15.6410    6.5640 C   0  0  0  0  0  0  0  0  0  0  0  0
   26.7670   15.2180    5.4100 C   0  0  0  0  0  0  0  0  0  0  0  0
   27.9540   14.4860    5.4970 C   0  0  0  0  0  0  0  0  0  0  0  0
   28.4680   14.1810    6.7700 C   0  0  0  0  0  0  0  0  0  0  0  0
   28.1640   10.3370    5.1530 C   0  0  0  0  0  0  0  0  0  0  0  0
   26.8810   10.2870    5.4420 N   0  0  0  0  0  0  0  0  0  0  0  0
   24.8497    9.5640    8.8806 H   0  0  0  0  0  0  0  0  0  0  0  0
   23.8507    9.4948    7.3893 H   0  0  0  0  0  0  0  0  0  0  0  0
   25.5127    8.8135    7.3893 H   0  0  0  0  0  0  0  0  0  0  0  0
   24.7229   11.4227    6.6356 H   0  0  0  0  0  0  0  0  0  0  0  0
   25.5419   11.5862    8.2491 H   0  0  0  0  0  0  0  0  0  0  0  0
   28.2211   11.7569    8.1168 H   0  0  0  0  0  0  0  0  0  0  0  0
   30.2747   13.0711    9.3116 H   0  0  0  0  0  0  0  0  0  0  0  0
   23.9863   14.8758    8.5422 H   0  0  0  0  0  0  0  0  0  0  0  0
   22.7749   15.6054   10.6039 H   0  0  0  0  0  0  0  0  0  0  0  0
   27.6143   16.8232    9.9289 H   0  0  0  0  0  0  0  0  0  0  0  0
   24.2395   18.9142   14.5709 H   0  0  0  0  0  0  0  0  0  0  0  0
   27.1478   19.6581   13.9679 H   0  0  0  0  0  0  0  0  0  0  0  0
   25.6918   20.4307   13.2559 H   0  0  0  0  0  0  0  0  0  0  0  0
   26.6229   21.7165   15.1895 H   0  0  0  0  0  0  0  0  0  0  0  0
   24.9357   21.1292   15.4747 H   0  0  0  0  0  0  0  0  0  0  0  0
   26.0951   18.3916   17.6595 H   0  0  0  0  0  0  0  0  0  0  0  0
   23.6590   16.3858   13.3588 H   0  0  0  0  0  0  0  0  0  0  0  0
   23.2348   17.8956   12.5869 H   0  0  0  0  0  0  0  0  0  0  0  0
   25.1667   16.2134    6.4573 H   0  0  0  0  0  0  0  0  0  0  0  0
   26.3521   15.4646    4.4215 H   0  0  0  0  0  0  0  0  0  0  0  0
   28.4763   14.1547    4.5874 H   0  0  0  0  0  0  0  0  0  0  0  0
   28.6069    9.9992    4.2045 H   0  0  0  0  0  0  0  0  0  0  0  0
  1  2  1  0
  2  3  1  0
  3  4  2  0
  4  5  1  0
  5  6  1  0
  6  7  2  0
  6  8  2  0
  6  9  1  0
  9 10  1  0
 10 11  2  0
 11 12  1  0
 12 13  1  0
 13 14  2  0
 14 15  1  0
 15 16  2  0
 16 17  1  0
 17 18  2  0
 18 19  1  0
 19 20  2  0
 19 21  1  0
 21 22  2  0
 21 23  1  0
 23 24  1  0
 24 25  1  0
 25 26  1  0
 26 27  1  0
 27 28  2  0
 27 29  1  0
 29 30  1  0
 30 31  2  0
 23 32  1  0
 14 33  1  0
 33 34  2  0
 34 35  1  0
 35 36  2  0
  5 37  1  0
 37 38  2  0
 38  3  1  0
 36 10  1  0
 36 13  1  0
 20 15  1  0
 30 24  1  0
 32 18  1  0
  1 39  1  0
  1 40  1  0
  1 41  1  0
  2 42  1  0
  2 43  1  0
  4 44  1  0
 11 45  1  0
 16 46  1  0
 17 47  1  0
 20 48  1  0
 24 49  1  1
 25 50  1  0
 25 51  1  0
 26 52  1  0
 26 53  1  0
 29 54  1  0
 32 55  1  0
 32 56  1  0
 33 57  1  0
 34 58  1  0
 35 59  1  0
 37 60  1  0
M  END
>  <meeko>  (587) 
{"is_sidechain": [true], "free_energy": -12.03, "intermolecular_energy": 0.0, "internal_energy": -12.03, "cluster_size": 20, "cluster_id": 1, "rank_in_cluster": 1}

>  <_RMSD_MCS_to_ref>  (587) 
1.6894570791299264

$$$$
ligand
     RDKit          3D

 49 52  0  0  0  0  0  0  0  0999 V2000
   24.8710    9.6160    7.7820 C   0  0  0  0  0  0  0  0  0  0  0  0
   25.4240   10.9650    7.3490 C   0  0  0  0  0  0  0  0  0  0  0  0
   26.4600   11.4750    8.2880 C   0  0  0  0  0  0  0  0  0  0  0  0
   27.1720   12.6580    8.2400 C   0  0  0  0  0  0  0  0  0  0  0  0
   27.9590   12.6190    9.3560 N   0  0  0  0  0  0  0  0  0  0  0  0
   29.2010   13.6930    9.7190 S   0  0  0  0  0  6  0  0  0  0  0  0
   29.7370   13.2460   10.9940 O   0  0  0  0  0  0  0  0  0  0  0  0
   30.0370   13.7260    8.5350 O   0  0  0  0  0  0  0  0  0  0  0  0
   28.5140   15.1510    9.9190 O   0  0  0  0  0  0  0  0  0  0  0  0
   27.2090   15.3050   10.1000 C   0  0  0  0  0  0  0  0  0  0  0  0
   26.7090   15.7930   11.2100 N   0  0  0  0  0  0  0  0  0  0  0  0
   25.3390   15.8230   11.0210 C   0  0  0  0  0  0  0  0  0  0  0  0
   24.3060   16.2510   11.8760 C   0  0  0  0  0  0  0  0  0  0  0  0
   24.5740   16.7860   13.2350 C   0  0  0  0  0  0  0  0  0  0  0  0
   24.4470   16.0650   14.2210 O   0  0  0  0  0  0  0  0  0  0  0  0
   24.9580   18.1030   13.3260 N   0  0  0  0  0  0  0  0  0  0  0  0
   25.1580   18.7660   14.6010 C   0  0  1  0  0  0  0  0  0  0  0  0
   26.1630   18.0200   15.4730 C   0  0  0  0  0  0  0  0  0  0  0  0
   26.3370   18.7570   16.7920 C   0  0  0  0  0  0  0  0  0  0  0  0
   26.7490   20.1920   16.5670 C   0  0  0  0  0  0  0  0  0  0  0  0
   27.4820   20.7960   17.3450 O   0  0  0  0  0  0  0  0  0  0  0  0
   26.2340   20.8130   15.4580 N   0  0  0  0  0  0  0  0  0  0  0  0
   25.6600   20.1970   14.3710 C   0  0  0  0  0  0  0  0  0  0  0  0
   25.5500   20.7940   13.3010 O   0  0  0  0  0  0  0  0  0  0  0  0
   22.9790   16.1690   11.4120 C   0  0  0  0  0  0  0  0  0  0  0  0
   22.6910   15.6800   10.1350 C   0  0  0  0  0  0  0  0  0  0  0  0
   23.7080   15.2570    9.2740 C   0  0  0  0  0  0  0  0  0  0  0  0
   25.0160   15.3420    9.7530 C   0  0  0  0  0  0  0  0  0  0  0  0
   26.2250   15.0270    9.1860 N   0  0  0  0  0  0  0  0  0  0  0  0
   27.7790   11.4320    9.9880 C   0  0  0  0  0  0  0  0  0  0  0  0
   26.8500   10.7240    9.3800 N   0  0  0  0  0  0  0  0  0  0  0  0
   24.8497    9.5640    8.8806 H   0  0  0  0  0  0  0  0  0  0  0  0
   23.8507    9.4948    7.3893 H   0  0  0  0  0  0  0  0  0  0  0  0
   25.5127    8.8135    7.3893 H   0  0  0  0  0  0  0  0  0  0  0  0
   25.8721   10.8601    6.3499 H   0  0  0  0  0  0  0  0  0  0  0  0
   24.5919   11.6844    7.3407 H   0  0  0  0  0  0  0  0  0  0  0  0
   27.1177   13.4496    7.4781 H   0  0  0  0  0  0  0  0  0  0  0  0
   25.1090   18.6377   12.4587 H   0  0  0  0  0  0  0  0  0  0  0  0
   24.1897   18.7809   15.1227 H   0  0  0  0  0  0  0  0  0  0  0  0
   25.7945   17.0020   15.6679 H   0  0  0  0  0  0  0  0  0  0  0  0
   27.1308   17.9670   14.9528 H   0  0  0  0  0  0  0  0  0  0  0  0
   25.3839   18.7395   17.3410 H   0  0  0  0  0  0  0  0  0  0  0  0
   27.1272   18.2548   17.3693 H   0  0  0  0  0  0  0  0  0  0  0  0
   26.2819   21.8417   15.4373 H   0  0  0  0  0  0  0  0  0  0  0  0
   22.1561   16.4950   12.0651 H   0  0  0  0  0  0  0  0  0  0  0  0
   21.6443   15.6269    9.8009 H   0  0  0  0  0  0  0  0  0  0  0  0
   23.4875   14.8751    8.2663 H   0  0  0  0  0  0  0  0  0  0  0  0
   26.3686   14.6479    8.2391 H   0  0  0  0  0  0  0  0  0  0  0  0
   28.3312   11.1069   10.8821 H   0  0  0  0  0  0  0  0  0  0  0  0
  1  2  1  0
  2  3  1  0
  3  4  2  0
  4  5  1  0
  5  6  1  0
  6  7  2  0
  6  8  2  0
  6  9  1  0
  9 10  1  0
 10 11  2  0
 11 12  1  0
 12 13  2  0
 13 14  1  0
 14 15  2  0
 14 16  1  0
 16 17  1  0
 17 18  1  0
 18 19  1  0
 19 20  1  0
 20 21  2  0
 20 22  1  0
 22 23  1  0
 23 24  2  0
 13 25  1  0
 25 26  2  0
 26 27  1  0
 27 28  2  0
 28 29  1  0
  5 30  1  0
 30 31  2  0
 31  3  1  0
 29 10  1  0
 28 12  1  0
 23 17  1  0
  1 32  1  0
  1 33  1  0
  1 34  1  0
  2 35  1  0
  2 36  1  0
  4 37  1  0
 16 38  1  0
 17 39  1  1
 18 40  1  0
 18 41  1  0
 19 42  1  0
 19 43  1  0
 22 44  1  0
 25 45  1  0
 26 46  1  0
 27 47  1  0
 29 48  1  0
 30 49  1  0
M  END
>  <meeko>  (588) 
{"is_sidechain": [true], "free_energy": -12.03, "intermolecular_energy": 0.0, "internal_energy": -12.03, "cluster_size": 12, "cluster_id": 1, "rank_in_cluster": 1}

>  <_RMSD_MCS_to_ref>  (588) 
0.7340240686335384

$$$$
ligand
     RDKit          3D

 59 62  0  0  0  0  0  0  0  0999 V2000
   24.8540    9.4020    7.6050 C   0  0  0  0  0  0  0  0  0  0  0  0
   25.5230   10.7550    7.4270 C   0  0  0  0  0  0  0  0  0  0  0  0
   26.6830   10.6900    6.4970 C   0  0  0  0  0  0  0  0  0  0  0  0
   26.7720   11.1210    5.1880 C   0  0  0  0  0  0  0  0  0  0  0  0
   28.0460   10.8020    4.8170 N   0  0  0  0  0  0  0  0  0  0  0  0
   28.8070   11.2820    3.3960 S   0  0  0  0  0  6  0  0  0  0  0  0
   28.0620   10.6610    2.3180 O   0  0  0  0  0  0  0  0  0  0  0  0
   30.2220   11.0390    3.6030 O   0  0  0  0  0  0  0  0  0  0  0  0
   28.5280   13.0300    3.3460 C   0  0  0  0  0  0  0  0  0  0  0  0
   28.6570   13.7180    2.1360 C   0  0  0  0  0  0  0  0  0  0  0  0
   28.4340   15.0940    2.1040 C   0  0  0  0  0  0  0  0  0  0  0  0
   28.0760   15.7710    3.2720 C   0  0  0  0  0  0  0  0  0  0  0  0
   27.9320   15.0750    4.4760 C   0  0  0  0  0  0  0  0  0  0  0  0
   27.5550   15.7740    5.6660 C   0  0  0  0  0  0  0  0  0  0  0  0
   27.2420   16.3590    6.6660 C   0  0  0  0  0  0  0  0  0  0  0  0
   26.8650   17.0660    7.8720 C   0  0  0  0  0  0  0  0  0  0  0  0
   26.9290   18.2850    7.8670 O   0  0  0  0  0  0  0  0  0  0  0  0
   26.4690   16.2390    8.8970 N   0  0  0  0  0  0  0  0  0  0  0  0
   26.0470   16.6130   10.1880 C   0  0  0  0  0  0  0  0  0  0  0  0
   24.8570   16.1900   10.7730 C   0  0  0  0  0  0  0  0  0  0  0  0
   24.5080   16.6100   12.0670 C   0  0  0  0  0  0  0  0  0  0  0  0
   25.3470   17.4340   12.8180 C   0  0  0  0  0  0  0  0  0  0  0  0
   25.0260   17.9430   14.0780 N   0  0  0  0  0  0  0  0  0  0  0  0
   26.0440   18.5900   14.9180 C   0  0  2  0  0  0  0  0  0  0  0  0
   25.7520   18.3140   16.3910 C   0  0  0  0  0  0  0  0  0  0  0  0
   26.7720   19.0330   17.2590 C   0  0  0  0  0  0  0  0  0  0  0  0
   26.7740   20.5170   16.9820 C   0  0  0  0  0  0  0  0  0  0  0  0
   27.0500   21.3470   17.8430 O   0  0  0  0  0  0  0  0  0  0  0  0
   26.4940   20.9010   15.6960 N   0  0  0  0  0  0  0  0  0  0  0  0
   25.9950   20.1120   14.6870 C   0  0  0  0  0  0  0  0  0  0  0  0
   25.5530   20.6160   13.6540 O   0  0  0  0  0  0  0  0  0  0  0  0
   26.5210   17.8850   12.2010 C   0  0  0  0  0  0  0  0  0  0  0  0
   26.8760   17.4720   10.9110 C   0  0  0  0  0  0  0  0  0  0  0  0
   28.1550   13.6990    4.5170 C   0  0  0  0  0  0  0  0  0  0  0  0
   28.6950   10.2510    5.8740 C   0  0  0  0  0  0  0  0  0  0  0  0
   27.8880   10.1560    6.9110 N   0  0  0  0  0  0  0  0  0  0  0  0
   24.7464    9.1845    8.6779 H   0  0  0  0  0  0  0  0  0  0  0  0
   23.8606    9.4192    7.1330 H   0  0  0  0  0  0  0  0  0  0  0  0
   25.4708    8.6230    7.1330 H   0  0  0  0  0  0  0  0  0  0  0  0
   24.7854   11.4648    7.0244 H   0  0  0  0  0  0  0  0  0  0  0  0
   25.8956   11.0796    8.4098 H   0  0  0  0  0  0  0  0  0  0  0  0
   25.9941   11.6096    4.5829 H   0  0  0  0  0  0  0  0  0  0  0  0
   28.9319   13.1788    1.2175 H   0  0  0  0  0  0  0  0  0  0  0  0
   28.5400   15.6464    1.1587 H   0  0  0  0  0  0  0  0  0  0  0  0
   27.9064   16.8575    3.2445 H   0  0  0  0  0  0  0  0  0  0  0  0
   26.4825   15.2286    8.6976 H   0  0  0  0  0  0  0  0  0  0  0  0
   24.1839   15.5208   10.2170 H   0  0  0  0  0  0  0  0  0  0  0  0
   23.5509   16.2817   12.4985 H   0  0  0  0  0  0  0  0  0  0  0  0
   24.0594   17.8637   14.4247 H   0  0  0  0  0  0  0  0  0  0  0  0
   27.0352   18.1924   14.6546 H   0  0  0  0  0  0  0  0  0  0  0  0
   24.7427   18.6751   16.6376 H   0  0  0  0  0  0  0  0  0  0  0  0
   25.8130   17.2317   16.5779 H   0  0  0  0  0  0  0  0  0  0  0  0
   26.5240   18.8658   18.3176 H   0  0  0  0  0  0  0  0  0  0  0  0
   27.7704   18.6337   17.0272 H   0  0  0  0  0  0  0  0  0  0  0  0
   26.6773   21.8868   15.4605 H   0  0  0  0  0  0  0  0  0  0  0  0
   27.1795   18.5800   12.7427 H   0  0  0  0  0  0  0  0  0  0  0  0
   27.8160   17.8275   10.4638 H   0  0  0  0  0  0  0  0  0  0  0  0
   28.0389   13.1452    5.4603 H   0  0  0  0  0  0  0  0  0  0  0  0
   29.7468    9.9291    5.8660 H   0  0  0  0  0  0  0  0  0  0  0  0
  1  2  1  0
  2  3  1  0
  3  4  2  0
  4  5  1  0
  5  6  1  0
  6  7  2  0
  6  8  2  0
  6  9  1  0
  9 10  2  0
 10 11  1  0
 11 12  2  0
 12 13  1  0
 13 14  1  0
 14 15  3  0
 15 16  1  0
 16 17  2  0
 16 18  1  0
 18 19  1  0
 19 20  2  0
 20 21  1  0
 21 22  2  0
 22 23  1  0
 23 24  1  0
 24 25  1  0
 25 26  1  0
 26 27  1  0
 27 28  2  0
 27 29  1  0
 29 30  1  0
 30 31  2  0
 22 32  1  0
 32 33  2  0
 13 34  2  0
  5 35  1  0
 35 36  2  0
 36  3  1  0
 34  9  1  0
 33 19  1  0
 30 24  1  0
  1 37  1  0
  1 38  1  0
  1 39  1  0
  2 40  1  0
  2 41  1  0
  4 42  1  0
 10 43  1  0
 11 44  1  0
 12 45  1  0
 18 46  1  0
 20 47  1  0
 21 48  1  0
 23 49  1  0
 24 50  1  6
 25 51  1  0
 25 52  1  0
 26 53  1  0
 26 54  1  0
 29 55  1  0
 32 56  1  0
 33 57  1  0
 34 58  1  0
 35 59  1  0
M  END
>  <meeko>  (589) 
{"is_sidechain": [true], "free_energy": -12.02, "intermolecular_energy": 0.0, "internal_energy": -12.02, "cluster_size": 20, "cluster_id": 1, "rank_in_cluster": 1}

>  <_RMSD_MCS_to_ref>  (589) 
0.9766482222376686

$$$$
ligand
     RDKit          3D

 60 64  0  0  0  0  0  0  0  0999 V2000
   24.8540    9.4020    7.6050 C   0  0  0  0  0  0  0  0  0  0  0  0
   25.5230   10.7550    7.4270 C   0  0  0  0  0  0  0  0  0  0  0  0
   25.0320   11.4690    6.2170 C   0  0  0  0  0  0  0  0  0  0  0  0
   25.4050   12.7060    5.7280 C   0  0  0  0  0  0  0  0  0  0  0  0
   24.6620   12.8530    4.5900 N   0  0  0  0  0  0  0  0  0  0  0  0
   24.5540   14.2510    3.6690 S   0  0  0  0  0  6  0  0  0  0  0  0
   23.6800   15.1200    4.4390 O   0  0  0  0  0  0  0  0  0  0  0  0
   24.2130   13.8660    2.3140 O   0  0  0  0  0  0  0  0  0  0  0  0
   26.1680   14.9820    3.6560 C   0  0  0  0  0  0  0  0  0  0  0  0
   27.0280   14.6890    2.5870 C   0  0  0  0  0  0  0  0  0  0  0  0
   28.3340   15.1810    2.5820 C   0  0  0  0  0  0  0  0  0  0  0  0
   28.7940   15.9570    3.6450 C   0  0  0  0  0  0  0  0  0  0  0  0
   27.9480   16.2430    4.7180 C   0  0  0  0  0  0  0  0  0  0  0  0
   26.6360   15.7450    4.7300 C   0  0  0  0  0  0  0  0  0  0  0  0
   25.7670   16.1170    5.8630 C   0  0  0  0  0  0  0  0  0  0  0  0
   24.7960   16.8110    5.6020 O   0  0  0  0  0  0  0  0  0  0  0  0
   26.1770   15.6320    7.0850 N   0  0  0  0  0  0  0  0  0  0  0  0
   25.5550   15.8400    8.3340 C   0  0  0  0  0  0  0  0  0  0  0  0
   24.2680   15.3630    8.6560 C   0  0  0  0  0  0  0  0  0  0  0  0
   23.6890   15.5990    9.9120 C   0  0  0  0  0  0  0  0  0  0  0  0
   24.4170   16.3150   10.8420 C   0  0  0  0  0  0  0  0  0  0  0  0
   25.6860   16.7830   10.5180 C   0  0  0  0  0  0  0  0  0  0  0  0
   26.2770   16.5670    9.2870 C   0  0  0  0  0  0  0  0  0  0  0  0
   26.2140   17.5070   11.6780 C   0  0  0  0  0  0  0  0  0  0  0  0
   27.2700   18.1090   11.6900 O   0  0  0  0  0  0  0  0  0  0  0  0
   25.2790   17.3750   12.6940 N   0  0  0  0  0  0  0  0  0  0  0  0
   25.3100   18.1280   13.9430 C   0  0  1  0  0  0  0  0  0  0  0  0
   26.2830   17.5620   14.9770 C   0  0  0  0  0  0  0  0  0  0  0  0
   26.1910   18.3800   16.2560 C   0  0  0  0  0  0  0  0  0  0  0  0
   26.4620   19.8430   15.9910 C   0  0  0  0  0  0  0  0  0  0  0  0
   26.8590   20.6040   16.8690 O   0  0  0  0  0  0  0  0  0  0  0  0
   26.1660   20.3070   14.7350 N   0  0  0  0  0  0  0  0  0  0  0  0
   25.5980   19.6150   13.6880 C   0  0  0  0  0  0  0  0  0  0  0  0
   25.2600   20.2070   12.6640 O   0  0  0  0  0  0  0  0  0  0  0  0
   24.0580   16.7320   12.2280 C   0  0  0  0  0  0  0  0  0  0  0  0
   23.8430   11.7770    4.4530 C   0  0  0  0  0  0  0  0  0  0  0  0
   24.0550   10.9080    5.4200 N   0  0  0  0  0  0  0  0  0  0  0  0
   24.7464    9.1845    8.6779 H   0  0  0  0  0  0  0  0  0  0  0  0
   23.8606    9.4192    7.1330 H   0  0  0  0  0  0  0  0  0  0  0  0
   25.4708    8.6230    7.1330 H   0  0  0  0  0  0  0  0  0  0  0  0
   25.3138   11.3731    8.3126 H   0  0  0  0  0  0  0  0  0  0  0  0
   26.6028   10.5848    7.3043 H   0  0  0  0  0  0  0  0  0  0  0  0
   26.1329   13.4109    6.1561 H   0  0  0  0  0  0  0  0  0  0  0  0
   26.6720   14.0698    1.7505 H   0  0  0  0  0  0  0  0  0  0  0  0
   29.0019   14.9560    1.7375 H   0  0  0  0  0  0  0  0  0  0  0  0
   29.8237   16.3439    3.6382 H   0  0  0  0  0  0  0  0  0  0  0  0
   28.3099   16.8590    5.5544 H   0  0  0  0  0  0  0  0  0  0  0  0
   27.0302   15.0549    7.0873 H   0  0  0  0  0  0  0  0  0  0  0  0
   23.7039   14.7918    7.9040 H   0  0  0  0  0  0  0  0  0  0  0  0
   22.6826   15.2240   10.1496 H   0  0  0  0  0  0  0  0  0  0  0  0
   27.2822   16.9541    9.0639 H   0  0  0  0  0  0  0  0  0  0  0  0
   24.3041   18.0257   14.3762 H   0  0  0  0  0  0  0  0  0  0  0  0
   26.0231   16.5149   15.1913 H   0  0  0  0  0  0  0  0  0  0  0  0
   27.3086   17.6102   14.5823 H   0  0  0  0  0  0  0  0  0  0  0  0
   25.1809   18.2731   16.6781 H   0  0  0  0  0  0  0  0  0  0  0  0
   26.9483   18.0082   16.9619 H   0  0  0  0  0  0  0  0  0  0  0  0
   26.3967   21.2940   14.5520 H   0  0  0  0  0  0  0  0  0  0  0  0
   23.8050   15.8617   12.8513 H   0  0  0  0  0  0  0  0  0  0  0  0
   23.1750   17.3865   12.2725 H   0  0  0  0  0  0  0  0  0  0  0  0
   23.1057   11.6496    3.6467 H   0  0  0  0  0  0  0  0  0  0  0  0
  1  2  1  0
  2  3  1  0
  3  4  2  0
  4  5  1  0
  5  6  1  0
  6  7  2  0
  6  8  2  0
  6  9  1  0
  9 10  2  0
 10 11  1  0
 11 12  2  0
 12 13  1  0
 13 14  2  0
 14 15  1  0
 15 16  2  0
 15 17  1  0
 17 18  1  0
 18 19  2  0
 19 20  1  0
 20 21  2  0
 21 22  1  0
 22 23  2  0
 22 24  1  0
 24 25  2  0
 24 26  1  0
 26 27  1  0
 27 28  1  0
 28 29  1  0
 29 30  1  0
 30 31  2  0
 30 32  1  0
 32 33  1  0
 33 34  2  0
 26 35  1  0
  5 36  1  0
 36 37  2  0
 37  3  1  0
 14  9  1  0
 23 18  1  0
 33 27  1  0
 35 21  1  0
  1 38  1  0
  1 39  1  0
  1 40  1  0
  2 41  1  0
  2 42  1  0
  4 43  1  0
 10 44  1  0
 11 45  1  0
 12 46  1  0
 13 47  1  0
 17 48  1  0
 19 49  1  0
 20 50  1  0
 23 51  1  0
 27 52  1  1
 28 53  1  0
 28 54  1  0
 29 55  1  0
 29 56  1  0
 32 57  1  0
 35 58  1  0
 35 59  1  0
 36 60  1  0
M  END
>  <meeko>  (590) 
{"is_sidechain": [true], "free_energy": -12.02, "intermolecular_energy": 0.0, "internal_energy": -12.02, "cluster_size": 16, "cluster_id": 1, "rank_in_cluster": 1}

>  <_RMSD_MCS_to_ref>  (590) 
0.8634061906194553

$$$$
ligand
     RDKit          3D

 64 68  0  0  0  0  0  0  0  0999 V2000
   24.8540    9.4020    7.6050 C   0  0  0  0  0  0  0  0  0  0  0  0
   25.5230   10.7550    7.4270 C   0  0  0  0  0  0  0  0  0  0  0  0
   25.0330   11.4710    6.2180 C   0  0  0  0  0  0  0  0  0  0  0  0
   25.4970   12.6430    5.6540 C   0  0  0  0  0  0  0  0  0  0  0  0
   24.6910   12.8330    4.5700 N   0  0  0  0  0  0  0  0  0  0  0  0
   24.8240   14.0800    3.4550 S   0  0  0  0  0  6  0  0  0  0  0  0
   26.0230   13.8240    2.6810 O   0  0  0  0  0  0  0  0  0  0  0  0
   23.5130   14.1430    2.8360 O   0  0  0  0  0  0  0  0  0  0  0  0
   25.0730   15.5520    4.4340 C   0  0  0  0  0  0  0  0  0  0  0  0
   24.0680   16.5260    4.3570 C   0  0  0  0  0  0  0  0  0  0  0  0
   24.1610   17.6890    5.1120 C   0  0  0  0  0  0  0  0  0  0  0  0
   25.2480   17.8820    5.9550 C   0  0  0  0  0  0  0  0  0  0  0  0
   26.2680   16.9160    6.0630 C   0  0  0  0  0  0  0  0  0  0  0  0
   26.2080   15.7510    5.2550 C   0  0  0  0  0  0  0  0  0  0  0  0
   27.3520   14.7650    5.3370 C   0  0  0  0  0  0  0  0  0  0  0  0
   28.6300   15.3860    5.9050 C   0  0  0  0  0  0  0  0  0  0  0  0
   28.3410   16.0080    7.1920 N   0  0  0  0  0  0  0  0  0  0  0  0
   27.4490   17.1880    6.9990 C   0  0  2  0  0  0  0  0  0  0  0  0
   26.9710   17.6500    8.4110 C   0  0  0  0  0  0  0  0  0  0  0  0
   27.1360   18.8030    8.8000 O   0  0  0  0  0  0  0  0  0  0  0  0
   26.3430   16.6280    9.1060 N   0  0  0  0  0  0  0  0  0  0  0  0
   25.7230   16.6720   10.3650 C   0  0  0  0  0  0  0  0  0  0  0  0
   24.4500   16.1030   10.4690 C   0  0  0  0  0  0  0  0  0  0  0  0
   23.7690   16.1080   11.6870 C   0  0  0  0  0  0  0  0  0  0  0  0
   24.3530   16.6860   12.8120 C   0  0  0  0  0  0  0  0  0  0  0  0
   25.6220   17.2750   12.7290 C   0  0  0  0  0  0  0  0  0  0  0  0
   26.2990   17.8920   13.9430 C   0  0  2  0  0  0  0  0  0  0  0  0
   25.3900   17.7620   15.1700 C   0  0  0  0  0  0  0  0  0  0  0  0
   26.0960   18.3190   16.3950 C   0  0  0  0  0  0  0  0  0  0  0  0
   26.5080   19.7530   16.1780 C   0  0  0  0  0  0  0  0  0  0  0  0
   26.6550   20.5430   17.1060 O   0  0  0  0  0  0  0  0  0  0  0  0
   26.7750   20.1220   14.8840 N   0  0  0  0  0  0  0  0  0  0  0  0
   26.7200   19.3490   13.7470 C   0  0  0  0  0  0  0  0  0  0  0  0
   27.0540   19.8330   12.6680 O   0  0  0  0  0  0  0  0  0  0  0  0
   26.3000   17.2530   11.4950 C   0  0  0  0  0  0  0  0  0  0  0  0
   23.7700   11.8380    4.5150 C   0  0  0  0  0  0  0  0  0  0  0  0
   23.9670   10.9760    5.4910 N   0  0  0  0  0  0  0  0  0  0  0  0
   24.7464    9.1845    8.6779 H   0  0  0  0  0  0  0  0  0  0  0  0
   23.8606    9.4192    7.1330 H   0  0  0  0  0  0  0  0  0  0  0  0
   25.4708    8.6230    7.1330 H   0  0  0  0  0  0  0  0  0  0  0  0
   25.3142   11.3725    8.3131 H   0  0  0  0  0  0  0  0  0  0  0  0
   26.6025   10.5837    7.3030 H   0  0  0  0  0  0  0  0  0  0  0  0
   26.3263   13.2777    5.9996 H   0  0  0  0  0  0  0  0  0  0  0  0
   23.2025   16.3692    3.6965 H   0  0  0  0  0  0  0  0  0  0  0  0
   23.3751   18.4555    5.0422 H   0  0  0  0  0  0  0  0  0  0  0  0
   25.3137   18.8056    6.5489 H   0  0  0  0  0  0  0  0  0  0  0  0
   27.0496   13.9288    5.9846 H   0  0  0  0  0  0  0  0  0  0  0  0
   27.5736   14.4287    4.3134 H   0  0  0  0  0  0  0  0  0  0  0  0
   29.3896   14.6019    6.0396 H   0  0  0  0  0  0  0  0  0  0  0  0
   29.0074   16.1481    5.2073 H   0  0  0  0  0  0  0  0  0  0  0  0
   27.8741   15.3239    7.8044 H   0  0  0  0  0  0  0  0  0  0  0  0
   28.0174   17.9853    6.4978 H   0  0  0  0  0  0  0  0  0  0  0  0
   26.3294   15.7122    8.6349 H   0  0  0  0  0  0  0  0  0  0  0  0
   23.9817   15.6479    9.5838 H   0  0  0  0  0  0  0  0  0  0  0  0
   22.7693   15.6548   11.7589 H   0  0  0  0  0  0  0  0  0  0  0  0
   23.8148   16.6801   13.7713 H   0  0  0  0  0  0  0  0  0  0  0  0
   27.2306   17.3276   14.0966 H   0  0  0  0  0  0  0  0  0  0  0  0
   24.4605   18.3242   14.9971 H   0  0  0  0  0  0  0  0  0  0  0  0
   25.1554   16.7004   15.3374 H   0  0  0  0  0  0  0  0  0  0  0  0
   25.4146   18.2673   17.2570 H   0  0  0  0  0  0  0  0  0  0  0  0
   26.9996   17.7198   16.5805 H   0  0  0  0  0  0  0  0  0  0  0  0
   27.0524   21.1043   14.7457 H   0  0  0  0  0  0  0  0  0  0  0  0
   27.3017   17.7015   11.4205 H   0  0  0  0  0  0  0  0  0  0  0  0
   22.9719   11.7621    3.7619 H   0  0  0  0  0  0  0  0  0  0  0  0
  1  2  1  0
  2  3  1  0
  3  4  2  0
  4  5  1  0
  5  6  1  0
  6  7  2  0
  6  8  2  0
  6  9  1  0
  9 10  2  0
 10 11  1  0
 11 12  2  0
 12 13  1  0
 13 14  2  0
 14 15  1  0
 15 16  1  0
 16 17  1  0
 17 18  1  0
 18 19  1  0
 19 20  2  0
 19 21  1  0
 21 22  1  0
 22 23  2  0
 23 24  1  0
 24 25  2  0
 25 26  1  0
 26 27  1  0
 27 28  1  0
 28 29  1  0
 29 30  1  0
 30 31  2  0
 30 32  1  0
 32 33  1  0
 33 34  2  0
 26 35  2  0
  5 36  1  0
 36 37  2  0
 37  3  1  0
 14  9  1  0
 35 22  1  0
 18 13  1  0
 33 27  1  0
  1 38  1  0
  1 39  1  0
  1 40  1  0
  2 41  1  0
  2 42  1  0
  4 43  1  0
 10 44  1  0
 11 45  1  0
 12 46  1  0
 15 47  1  0
 15 48  1  0
 16 49  1  0
 16 50  1  0
 17 51  1  0
 18 52  1  6
 21 53  1  0
 23 54  1  0
 24 55  1  0
 25 56  1  0
 27 57  1  1
 28 58  1  0
 28 59  1  0
 29 60  1  0
 29 61  1  0
 32 62  1  0
 35 63  1  0
 36 64  1  0
M  END
>  <meeko>  (591) 
{"is_sidechain": [true], "free_energy": -12.02, "intermolecular_energy": 0.0, "internal_energy": -12.02, "cluster_size": 20, "cluster_id": 1, "rank_in_cluster": 1}

>  <_RMSD_MCS_to_ref>  (591) 
1.4484729458985404

$$$$
ligand
     RDKit          3D

 59 63  0  0  0  0  0  0  0  0999 V2000
   24.8710    9.6160    7.7820 C   0  0  0  0  0  0  0  0  0  0  0  0
   25.4240   10.9650    7.3490 C   0  0  0  0  0  0  0  0  0  0  0  0
   26.9070   11.0260    7.4630 C   0  0  0  0  0  0  0  0  0  0  0  0
   27.6980   12.0390    7.9710 C   0  0  0  0  0  0  0  0  0  0  0  0
   28.9700   11.5620    7.8490 N   0  0  0  0  0  0  0  0  0  0  0  0
   30.3780   12.4450    8.1030 S   0  0  0  0  0  6  0  0  0  0  0  0
   30.0390   13.8270    7.8290 O   0  0  0  0  0  0  0  0  0  0  0  0
   31.4160   11.7460    7.3620 O   0  0  0  0  0  0  0  0  0  0  0  0
   30.6780   12.2570    9.8250 C   0  0  0  0  0  0  0  0  0  0  0  0
   31.9160   11.7380   10.2300 C   0  0  0  0  0  0  0  0  0  0  0  0
   32.1960   11.6320   11.5850 C   0  0  0  0  0  0  0  0  0  0  0  0
   31.2270   12.0480   12.4750 C   0  0  0  0  0  0  0  0  0  0  0  0
   30.0260   12.5360   12.0950 N   0  0  0  0  0  0  0  0  0  0  0  0
   29.7370   12.6340   10.7810 C   0  0  0  0  0  0  0  0  0  0  0  0
   28.4580   13.0950   10.4130 N   0  0  0  0  0  0  0  0  0  0  0  0
   28.1310   14.3980   10.1030 C   0  0  0  0  0  0  0  0  0  0  0  0
   28.8940   15.3480    9.9780 O   0  0  0  0  0  0  0  0  0  0  0  0
   26.6860   14.6260    9.8190 C   0  0  0  0  0  0  0  0  0  0  0  0
   26.0530   14.0950    8.6790 C   0  0  0  0  0  0  0  0  0  0  0  0
   24.6930   14.3560    8.4190 C   0  0  0  0  0  0  0  0  0  0  0  0
   23.9440   15.1460    9.2900 C   0  0  0  0  0  0  0  0  0  0  0  0
   24.5830   15.6380   10.4130 C   0  0  0  0  0  0  0  0  0  0  0  0
   25.9250   15.3860   10.6950 C   0  0  0  0  0  0  0  0  0  0  0  0
   26.3130   16.0650   11.9680 C   0  0  0  0  0  0  0  0  0  0  0  0
   25.0620   16.6840   12.3920 N   0  0  0  0  0  0  0  0  0  0  0  0
   24.9890   17.6960   13.4380 C   0  0  1  0  0  0  0  0  0  0  0  0
   25.6210   17.2330   14.7470 C   0  0  0  0  0  0  0  0  0  0  0  0
   25.4300   18.3080   15.8070 C   0  0  0  0  0  0  0  0  0  0  0  0
   25.9890   19.6350   15.3490 C   0  0  0  0  0  0  0  0  0  0  0  0
   26.5050   20.4330   16.1250 O   0  0  0  0  0  0  0  0  0  0  0  0
   25.8710   19.9240   14.0140 N   0  0  0  0  0  0  0  0  0  0  0  0
   25.6470   19.0170   13.0020 C   0  0  0  0  0  0  0  0  0  0  0  0
   25.9670   19.2870   11.8460 O   0  0  0  0  0  0  0  0  0  0  0  0
   24.0460   16.5030   11.4690 C   0  0  0  0  0  0  0  0  0  0  0  0
   22.9220   16.9640   11.4890 O   0  0  0  0  0  0  0  0  0  0  0  0
   28.9360   10.3440    7.2530 C   0  0  0  0  0  0  0  0  0  0  0  0
   27.6930    9.9830    7.0130 N   0  0  0  0  0  0  0  0  0  0  0  0
   24.8497    9.5640    8.8806 H   0  0  0  0  0  0  0  0  0  0  0  0
   23.8507    9.4948    7.3893 H   0  0  0  0  0  0  0  0  0  0  0  0
   25.5127    8.8135    7.3893 H   0  0  0  0  0  0  0  0  0  0  0  0
   25.1413   11.1442    6.3012 H   0  0  0  0  0  0  0  0  0  0  0  0
   25.0017   11.7329    8.0138 H   0  0  0  0  0  0  0  0  0  0  0  0
   27.3756   13.0079    8.3800 H   0  0  0  0  0  0  0  0  0  0  0  0
   32.6568   11.4185    9.4822 H   0  0  0  0  0  0  0  0  0  0  0  0
   33.1574   11.2302   11.9375 H   0  0  0  0  0  0  0  0  0  0  0  0
   31.4440   11.9786   13.5511 H   0  0  0  0  0  0  0  0  0  0  0  0
   27.7009   12.3978   10.3719 H   0  0  0  0  0  0  0  0  0  0  0  0
   26.6280   13.4678    7.9818 H   0  0  0  0  0  0  0  0  0  0  0  0
   24.2183   13.9330    7.5214 H   0  0  0  0  0  0  0  0  0  0  0  0
   22.8854   15.3693    9.0914 H   0  0  0  0  0  0  0  0  0  0  0  0
   26.6692   15.3384   12.7131 H   0  0  0  0  0  0  0  0  0  0  0  0
   27.1377   16.7828   11.8474 H   0  0  0  0  0  0  0  0  0  0  0  0
   23.9156   17.8639   13.6102 H   0  0  0  0  0  0  0  0  0  0  0  0
   25.1392   16.3012   15.0780 H   0  0  0  0  0  0  0  0  0  0  0  0
   26.6955   17.0541   14.5938 H   0  0  0  0  0  0  0  0  0  0  0  0
   24.3553   18.4231   16.0113 H   0  0  0  0  0  0  0  0  0  0  0  0
   25.9676   17.9994   16.7157 H   0  0  0  0  0  0  0  0  0  0  0  0
   25.9582   20.9136   13.7420 H   0  0  0  0  0  0  0  0  0  0  0  0
   29.8228    9.7423    7.0050 H   0  0  0  0  0  0  0  0  0  0  0  0
  1  2  1  0
  2  3  1  0
  3  4  2  0
  4  5  1  0
  5  6  1  0
  6  7  2  0
  6  8  2  0
  6  9  1  0
  9 10  2  0
 10 11  1  0
 11 12  2  0
 12 13  1  0
 13 14  2  0
 14 15  1  0
 15 16  1  0
 16 17  2  0
 16 18  1  0
 18 19  2  0
 19 20  1  0
 20 21  2  0
 21 22  1  0
 22 23  2  0
 23 24  1  0
 24 25  1  0
 25 26  1  0
 26 27  1  0
 27 28  1  0
 28 29  1  0
 29 30  2  0
 29 31  1  0
 31 32  1  0
 32 33  2  0
 25 34  1  0
 34 35  2  0
  5 36  1  0
 36 37  2  0
 37  3  1  0
 14  9  1  0
 23 18  1  0
 32 26  1  0
 34 22  1  0
  1 38  1  0
  1 39  1  0
  1 40  1  0
  2 41  1  0
  2 42  1  0
  4 43  1  0
 10 44  1  0
 11 45  1  0
 12 46  1  0
 15 47  1  0
 19 48  1  0
 20 49  1  0
 21 50  1  0
 24 51  1  0
 24 52  1  0
 26 53  1  1
 27 54  1  0
 27 55  1  0
 28 56  1  0
 28 57  1  0
 31 58  1  0
 36 59  1  0
M  END
>  <meeko>  (592) 
{"is_sidechain": [true], "free_energy": -12.02, "intermolecular_energy": 0.0, "internal_energy": -12.02, "cluster_size": 9, "cluster_id": 1, "rank_in_cluster": 1}

>  <_RMSD_MCS_to_ref>  (592) 
1.583856930968759

$$$$
ligand
     RDKit          3D

 58 62  0  0  0  0  0  0  0  0999 V2000
   24.8710    9.6160    7.7820 C   0  0  0  0  0  0  0  0  0  0  0  0
   25.4240   10.9650    7.3490 C   0  0  0  0  0  0  0  0  0  0  0  0
   26.8700   11.1110    7.6720 C   0  0  0  0  0  0  0  0  0  0  0  0
   27.4890   12.0380    8.4890 C   0  0  0  0  0  0  0  0  0  0  0  0
   28.8130   11.7000    8.4320 N   0  0  0  0  0  0  0  0  0  0  0  0
   30.0740   12.6060    9.0680 S   0  0  0  0  0  6  0  0  0  0  0  0
   31.0940   11.6130    9.3600 O   0  0  0  0  0  0  0  0  0  0  0  0
   29.5460   13.4490   10.1200 O   0  0  0  0  0  0  0  0  0  0  0  0
   30.6890   13.6220    7.7930 C   0  0  0  0  0  0  0  0  0  0  0  0
   32.0520   13.7410    7.6450 C   0  0  0  0  0  0  0  0  0  0  0  0
   32.6370   14.5590    6.7420 N   0  0  0  0  0  0  0  0  0  0  0  0
   31.8190   15.3030    5.9930 C   0  0  0  0  0  0  0  0  0  0  0  0
   30.4830   15.2840    6.0590 N   0  0  0  0  0  0  0  0  0  0  0  0
   29.9340   14.4220    6.9690 C   0  0  0  0  0  0  0  0  0  0  0  0
   28.4350   14.4300    6.9430 C   0  0  0  0  0  0  0  0  0  0  0  0
   27.8440   14.1610    5.9100 O   0  0  0  0  0  0  0  0  0  0  0  0
   27.8720   14.8180    8.1450 N   0  0  0  0  0  0  0  0  0  0  0  0
   26.5070   14.9120    8.4720 C   0  0  0  0  0  0  0  0  0  0  0  0
   25.4730   14.4290    7.6550 C   0  0  0  0  0  0  0  0  0  0  0  0
   24.1200   14.5360    8.0370 C   0  0  0  0  0  0  0  0  0  0  0  0
   23.7670   15.1270    9.2470 C   0  0  0  0  0  0  0  0  0  0  0  0
   24.7960   15.5940   10.0390 C   0  0  0  0  0  0  0  0  0  0  0  0
   26.1420   15.5030    9.6750 C   0  0  0  0  0  0  0  0  0  0  0  0
   26.9880   16.1180   10.7450 C   0  0  0  0  0  0  0  0  0  0  0  0
   26.0100   16.5240   11.7430 N   0  0  0  0  0  0  0  0  0  0  0  0
   26.3120   17.3790   12.8900 C   0  0  2  0  0  0  0  0  0  0  0  0
   25.5070   16.9450   14.1180 C   0  0  0  0  0  0  0  0  0  0  0  0
   25.9420   17.7520   15.3300 C   0  0  0  0  0  0  0  0  0  0  0  0
   25.8140   19.2330   15.0730 C   0  0  0  0  0  0  0  0  0  0  0  0
   25.4790   20.0280   15.9450 O   0  0  0  0  0  0  0  0  0  0  0  0
   26.1100   19.6620   13.8040 N   0  0  0  0  0  0  0  0  0  0  0  0
   26.1020   18.8870   12.6670 C   0  0  0  0  0  0  0  0  0  0  0  0
   25.9420   19.4140   11.5680 O   0  0  0  0  0  0  0  0  0  0  0  0
   24.7110   16.2680   11.3390 C   0  0  0  0  0  0  0  0  0  0  0  0
   23.6800   16.5680   11.9090 O   0  0  0  0  0  0  0  0  0  0  0  0
   28.9710   10.6690    7.5610 C   0  0  0  0  0  0  0  0  0  0  0  0
   27.8030   10.2700    7.1010 N   0  0  0  0  0  0  0  0  0  0  0  0
   24.8497    9.5640    8.8806 H   0  0  0  0  0  0  0  0  0  0  0  0
   23.8507    9.4948    7.3893 H   0  0  0  0  0  0  0  0  0  0  0  0
   25.5127    8.8135    7.3893 H   0  0  0  0  0  0  0  0  0  0  0  0
   25.2917   11.0695    6.2620 H   0  0  0  0  0  0  0  0  0  0  0  0
   24.8756   11.7458    7.8964 H   0  0  0  0  0  0  0  0  0  0  0  0
   27.0239   12.8587    9.0548 H   0  0  0  0  0  0  0  0  0  0  0  0
   32.7006   13.1376    8.2971 H   0  0  0  0  0  0  0  0  0  0  0  0
   32.2804   15.9855    5.2641 H   0  0  0  0  0  0  0  0  0  0  0  0
   28.5338   15.0692    8.8932 H   0  0  0  0  0  0  0  0  0  0  0  0
   25.7241   13.9559    6.6942 H   0  0  0  0  0  0  0  0  0  0  0  0
   23.3347   14.1482    7.3715 H   0  0  0  0  0  0  0  0  0  0  0  0
   22.7157   15.2176    9.5576 H   0  0  0  0  0  0  0  0  0  0  0  0
   27.6953   15.3848   11.1600 H   0  0  0  0  0  0  0  0  0  0  0  0
   27.6081   16.9509   10.3820 H   0  0  0  0  0  0  0  0  0  0  0  0
   27.3917   17.2401   13.0483 H   0  0  0  0  0  0  0  0  0  0  0  0
   24.4363   17.1146   13.9314 H   0  0  0  0  0  0  0  0  0  0  0  0
   25.6850   15.8766   14.3100 H   0  0  0  0  0  0  0  0  0  0  0  0
   25.3093   17.4806   16.1879 H   0  0  0  0  0  0  0  0  0  0  0  0
   26.9976   17.5245   15.5397 H   0  0  0  0  0  0  0  0  0  0  0  0
   26.3611   20.6546   13.6921 H   0  0  0  0  0  0  0  0  0  0  0  0
   29.9391   10.2291    7.2794 H   0  0  0  0  0  0  0  0  0  0  0  0
  1  2  1  0
  2  3  1  0
  3  4  2  0
  4  5  1  0
  5  6  1  0
  6  7  2  0
  6  8  2  0
  6  9  1  0
  9 10  2  0
 10 11  1  0
 11 12  2  0
 12 13  1  0
 13 14  2  0
 14 15  1  0
 15 16  2  0
 15 17  1  0
 17 18  1  0
 18 19  2  0
 19 20  1  0
 20 21  2  0
 21 22  1  0
 22 23  2  0
 23 24  1  0
 24 25  1  0
 25 26  1  0
 26 27  1  0
 27 28  1  0
 28 29  1  0
 29 30  2  0
 29 31  1  0
 31 32  1  0
 32 33  2  0
 25 34  1  0
 34 35  2  0
  5 36  1  0
 36 37  2  0
 37  3  1  0
 14  9  1  0
 23 18  1  0
 32 26  1  0
 34 22  1  0
  1 38  1  0
  1 39  1  0
  1 40  1  0
  2 41  1  0
  2 42  1  0
  4 43  1  0
 10 44  1  0
 12 45  1  0
 17 46  1  0
 19 47  1  0
 20 48  1  0
 21 49  1  0
 24 50  1  0
 24 51  1  0
 26 52  1  1
 27 53  1  0
 27 54  1  0
 28 55  1  0
 28 56  1  0
 31 57  1  0
 36 58  1  0
M  END
>  <meeko>  (593) 
{"is_sidechain": [true], "free_energy": -12.02, "intermolecular_energy": 0.0, "internal_energy": -12.02, "cluster_size": 15, "cluster_id": 1, "rank_in_cluster": 1}

>  <_RMSD_MCS_to_ref>  (593) 
1.9857479699095753

$$$$
ligand
     RDKit          3D

 53 57  0  0  0  0  0  0  0  0999 V2000
   24.8710    9.6160    7.7820 C   0  0  0  0  0  0  0  0  0  0  0  0
   25.4240   10.9650    7.3490 C   0  0  0  0  0  0  0  0  0  0  0  0
   26.8150   11.1840    7.8330 C   0  0  0  0  0  0  0  0  0  0  0  0
   27.2570   11.9890    8.8660 C   0  0  0  0  0  0  0  0  0  0  0  0
   28.6110   11.8220    8.8590 N   0  0  0  0  0  0  0  0  0  0  0  0
   29.7040   12.5610    9.9060 S   0  0  0  0  0  6  0  0  0  0  0  0
   31.0150   12.3100    9.3370 O   0  0  0  0  0  0  0  0  0  0  0  0
   29.3340   12.0340   11.2060 O   0  0  0  0  0  0  0  0  0  0  0  0
   29.4090   14.1630    9.9100 O   0  0  0  0  0  0  0  0  0  0  0  0
   28.2090   14.7450    9.5900 C   0  0  0  0  0  0  0  0  0  0  0  0
   27.9430   14.7930    8.2240 C   0  0  0  0  0  0  0  0  0  0  0  0
   26.7600   15.3610    7.7540 C   0  0  0  0  0  0  0  0  0  0  0  0
   25.8310   15.9180    8.6470 C   0  0  0  0  0  0  0  0  0  0  0  0
   24.6370   16.4810    8.1920 C   0  0  0  0  0  0  0  0  0  0  0  0
   23.6980   17.0360    8.9870 N   0  0  0  0  0  0  0  0  0  0  0  0
   23.9670   17.0490   10.3100 C   0  0  0  0  0  0  0  0  0  0  0  0
   25.1310   16.5400   10.8850 C   0  0  0  0  0  0  0  0  0  0  0  0
   25.3160   16.7300   12.3070 C   0  0  0  0  0  0  0  0  0  0  0  0
   25.3640   17.9370   12.9670 C   0  0  0  0  0  0  0  0  0  0  0  0
   25.5250   17.5870   14.2760 N   0  0  0  0  0  0  0  0  0  0  0  0
   25.6320   18.4710   15.4230 C   0  0  1  0  0  0  0  0  0  0  0  0
   26.6630   17.9720   16.4380 C   0  0  0  0  0  0  0  0  0  0  0  0
   26.7270   18.9330   17.6150 C   0  0  0  0  0  0  0  0  0  0  0  0
   27.0450   20.3350   17.1560 C   0  0  0  0  0  0  0  0  0  0  0  0
   27.5530   21.1690   17.9000 O   0  0  0  0  0  0  0  0  0  0  0  0
   26.6660   20.6590   15.8770 N   0  0  0  0  0  0  0  0  0  0  0  0
   25.9440   19.8920   14.9870 C   0  0  0  0  0  0  0  0  0  0  0  0
   25.5290   20.3990   13.9470 O   0  0  0  0  0  0  0  0  0  0  0  0
   25.4850   16.2510   14.4290 N   0  0  0  0  0  0  0  0  0  0  0  0
   25.3580   15.7140   13.2210 N   0  0  0  0  0  0  0  0  0  0  0  0
   26.0870   15.9170   10.0370 C   0  0  0  0  0  0  0  0  0  0  0  0
   27.2770   15.2770   10.4840 C   0  0  0  0  0  0  0  0  0  0  0  0
   28.9460   10.9000    7.9210 C   0  0  0  0  0  0  0  0  0  0  0  0
   27.8790   10.5330    7.2360 N   0  0  0  0  0  0  0  0  0  0  0  0
   24.8497    9.5640    8.8806 H   0  0  0  0  0  0  0  0  0  0  0  0
   23.8507    9.4948    7.3893 H   0  0  0  0  0  0  0  0  0  0  0  0
   25.5127    8.8135    7.3893 H   0  0  0  0  0  0  0  0  0  0  0  0
   25.4195   11.0136    6.2501 H   0  0  0  0  0  0  0  0  0  0  0  0
   24.7869   11.7475    7.7868 H   0  0  0  0  0  0  0  0  0  0  0  0
   26.6559   12.6188    9.5384 H   0  0  0  0  0  0  0  0  0  0  0  0
   28.6715   14.3798    7.5109 H   0  0  0  0  0  0  0  0  0  0  0  0
   26.5525   15.3729    6.6738 H   0  0  0  0  0  0  0  0  0  0  0  0
   24.4482   16.4715    7.1084 H   0  0  0  0  0  0  0  0  0  0  0  0
   23.2160   17.4918   10.9808 H   0  0  0  0  0  0  0  0  0  0  0  0
   25.2899   18.9477   12.5391 H   0  0  0  0  0  0  0  0  0  0  0  0
   24.6536   18.4700   15.9257 H   0  0  0  0  0  0  0  0  0  0  0  0
   26.3708   16.9738   16.7960 H   0  0  0  0  0  0  0  0  0  0  0  0
   27.6511   17.9164   15.9577 H   0  0  0  0  0  0  0  0  0  0  0  0
   25.7549   18.9355   18.1298 H   0  0  0  0  0  0  0  0  0  0  0  0
   27.5244   18.5991   18.2952 H   0  0  0  0  0  0  0  0  0  0  0  0
   26.9563   21.5884   15.5411 H   0  0  0  0  0  0  0  0  0  0  0  0
   27.4682   15.1991   11.5644 H   0  0  0  0  0  0  0  0  0  0  0  0
   29.9624   10.5135    7.7552 H   0  0  0  0  0  0  0  0  0  0  0  0
  1  2  1  0
  2  3  1  0
  3  4  2  0
  4  5  1  0
  5  6  1  0
  6  7  2  0
  6  8  2  0
  6  9  1  0
  9 10  1  0
 10 11  2  0
 11 12  1  0
 12 13  2  0
 13 14  1  0
 14 15  2  0
 15 16  1  0
 16 17  2  0
 17 18  1  0
 18 19  2  0
 19 20  1  0
 20 21  1  0
 21 22  1  0
 22 23  1  0
 23 24  1  0
 24 25  2  0
 24 26  1  0
 26 27  1  0
 27 28  2  0
 20 29  1  0
 29 30  2  0
 17 31  1  0
 31 32  2  0
  5 33  1  0
 33 34  2  0
 34  3  1  0
 32 10  1  0
 31 13  1  0
 30 18  1  0
 27 21  1  0
  1 35  1  0
  1 36  1  0
  1 37  1  0
  2 38  1  0
  2 39  1  0
  4 40  1  0
 11 41  1  0
 12 42  1  0
 14 43  1  0
 16 44  1  0
 19 45  1  0
 21 46  1  1
 22 47  1  0
 22 48  1  0
 23 49  1  0
 23 50  1  0
 26 51  1  0
 32 52  1  0
 33 53  1  0
M  END
>  <meeko>  (594) 
{"is_sidechain": [true], "free_energy": -12.02, "intermolecular_energy": 0.0, "internal_energy": -12.02, "cluster_size": 4, "cluster_id": 1, "rank_in_cluster": 1}

>  <_RMSD_MCS_to_ref>  (594) 
1.1870885486020923

$$$$
ligand
     RDKit          3D

 56 60  0  0  0  0  0  0  0  0999 V2000
   24.8540    9.4020    7.6050 C   0  0  0  0  0  0  0  0  0  0  0  0
   25.5230   10.7550    7.4270 C   0  0  0  0  0  0  0  0  0  0  0  0
   25.1800   11.3850    6.1230 C   0  0  0  0  0  0  0  0  0  0  0  0
   24.5070   12.5660    5.8800 C   0  0  0  0  0  0  0  0  0  0  0  0
   24.4550   12.6470    4.5170 N   0  0  0  0  0  0  0  0  0  0  0  0
   23.8500   13.9330    3.6240 S   0  0  0  0  0  6  0  0  0  0  0  0
   22.4060   13.8440    3.7390 O   0  0  0  0  0  0  0  0  0  0  0  0
   24.5280   13.8790    2.3410 O   0  0  0  0  0  0  0  0  0  0  0  0
   24.3810   15.3960    4.4610 C   0  0  0  0  0  0  0  0  0  0  0  0
   24.9670   15.2780    5.6990 C   0  0  0  0  0  0  0  0  0  0  0  0
   25.3420   16.4620    6.2890 C   0  0  0  0  0  0  0  0  0  0  0  0
   25.9680   16.5170    7.5350 N   0  0  0  0  0  0  0  0  0  0  0  0
   25.4640   16.6040    8.8460 C   0  0  0  0  0  0  0  0  0  0  0  0
   24.2930   15.9390    9.2750 C   0  0  0  0  0  0  0  0  0  0  0  0
   23.8340   16.0220   10.5990 C   0  0  0  0  0  0  0  0  0  0  0  0
   24.5650   16.7750   11.4970 C   0  0  0  0  0  0  0  0  0  0  0  0
   25.7170   17.4280   11.0760 C   0  0  0  0  0  0  0  0  0  0  0  0
   26.1860   17.3660    9.7770 C   0  0  0  0  0  0  0  0  0  0  0  0
   26.2780   18.1490   12.2240 C   0  0  0  0  0  0  0  0  0  0  0  0
   27.2410   18.8860   12.1710 O   0  0  0  0  0  0  0  0  0  0  0  0
   25.4880   17.8330   13.3200 N   0  0  0  0  0  0  0  0  0  0  0  0
   25.5600   18.5140   14.6080 C   0  0  1  0  0  0  0  0  0  0  0  0
   26.6720   17.9940   15.5180 C   0  0  0  0  0  0  0  0  0  0  0  0
   26.6180   18.7270   16.8500 C   0  0  0  0  0  0  0  0  0  0  0  0
   26.7220   20.2220   16.6560 C   0  0  0  0  0  0  0  0  0  0  0  0
   27.1130   20.9700   17.5470 O   0  0  0  0  0  0  0  0  0  0  0  0
   26.2770   20.7220   15.4580 N   0  0  0  0  0  0  0  0  0  0  0  0
   25.6800   20.0350   14.4250 C   0  0  0  0  0  0  0  0  0  0  0  0
   25.1890   20.6460   13.4770 O   0  0  0  0  0  0  0  0  0  0  0  0
   24.3140   17.0610   12.9380 C   0  0  0  0  0  0  0  0  0  0  0  0
   25.1750   17.6440    5.6650 N   0  0  0  0  0  0  0  0  0  0  0  0
   24.5890   17.6360    4.4580 C   0  0  0  0  0  0  0  0  0  0  0  0
   24.1650   16.5530    3.8060 N   0  0  0  0  0  0  0  0  0  0  0  0
   25.1080   11.5830    3.9830 C   0  0  0  0  0  0  0  0  0  0  0  0
   25.5490   10.7860    4.9340 N   0  0  0  0  0  0  0  0  0  0  0  0
   24.7464    9.1845    8.6779 H   0  0  0  0  0  0  0  0  0  0  0  0
   23.8606    9.4192    7.1330 H   0  0  0  0  0  0  0  0  0  0  0  0
   25.4708    8.6230    7.1330 H   0  0  0  0  0  0  0  0  0  0  0  0
   25.1963   11.4212    8.2390 H   0  0  0  0  0  0  0  0  0  0  0  0
   26.6116   10.5989    7.4505 H   0  0  0  0  0  0  0  0  0  0  0  0
   24.1048   13.2784    6.6153 H   0  0  0  0  0  0  0  0  0  0  0  0
   25.1250   14.3035    6.1842 H   0  0  0  0  0  0  0  0  0  0  0  0
   26.9964   16.4884    7.4856 H   0  0  0  0  0  0  0  0  0  0  0  0
   23.7243   15.3385    8.5498 H   0  0  0  0  0  0  0  0  0  0  0  0
   22.9171   15.5015   10.9128 H   0  0  0  0  0  0  0  0  0  0  0  0
   27.1011   17.9000    9.4811 H   0  0  0  0  0  0  0  0  0  0  0  0
   24.6123   18.2851   15.1173 H   0  0  0  0  0  0  0  0  0  0  0  0
   26.5344   16.9157   15.6865 H   0  0  0  0  0  0  0  0  0  0  0  0
   27.6483   18.1678   15.0419 H   0  0  0  0  0  0  0  0  0  0  0  0
   25.6652   18.4954   17.3486 H   0  0  0  0  0  0  0  0  0  0  0  0
   27.4681   18.3957   17.4645 H   0  0  0  0  0  0  0  0  0  0  0  0
   26.4052   21.7338   15.3142 H   0  0  0  0  0  0  0  0  0  0  0  0
   24.2441   16.1307   13.5208 H   0  0  0  0  0  0  0  0  0  0  0  0
   23.3662   17.5889   13.1197 H   0  0  0  0  0  0  0  0  0  0  0  0
   24.4459   18.6079    3.9631 H   0  0  0  0  0  0  0  0  0  0  0  0
   25.2490   11.4107    2.9058 H   0  0  0  0  0  0  0  0  0  0  0  0
  1  2  1  0
  2  3  1  0
  3  4  2  0
  4  5  1  0
  5  6  1  0
  6  7  2  0
  6  8  2  0
  6  9  1  0
  9 10  2  0
 10 11  1  0
 11 12  1  0
 12 13  1  0
 13 14  2  0
 14 15  1  0
 15 16  2  0
 16 17  1  0
 17 18  2  0
 17 19  1  0
 19 20  2  0
 19 21  1  0
 21 22  1  0
 22 23  1  0
 23 24  1  0
 24 25  1  0
 25 26  2  0
 25 27  1  0
 27 28  1  0
 28 29  2  0
 21 30  1  0
 11 31  2  0
 31 32  1  0
 32 33  2  0
  5 34  1  0
 34 35  2  0
 35  3  1  0
 33  9  1  0
 18 13  1  0
 28 22  1  0
 30 16  1  0
  1 36  1  0
  1 37  1  0
  1 38  1  0
  2 39  1  0
  2 40  1  0
  4 41  1  0
 10 42  1  0
 12 43  1  0
 14 44  1  0
 15 45  1  0
 18 46  1  0
 22 47  1  1
 23 48  1  0
 23 49  1  0
 24 50  1  0
 24 51  1  0
 27 52  1  0
 30 53  1  0
 30 54  1  0
 32 55  1  0
 34 56  1  0
M  END
>  <meeko>  (595) 
{"is_sidechain": [true], "free_energy": -12.01, "intermolecular_energy": 0.0, "internal_energy": -12.01, "cluster_size": 15, "cluster_id": 1, "rank_in_cluster": 1}

>  <_RMSD_MCS_to_ref>  (595) 
0.6056408910310528

$$$$
ligand
     RDKit          3D

 57 61  0  0  0  0  0  0  0  0999 V2000
   24.8540    9.4020    7.6050 C   0  0  0  0  0  0  0  0  0  0  0  0
   25.5230   10.7550    7.4270 C   0  0  0  0  0  0  0  0  0  0  0  0
   27.0030   10.6420    7.3270 C   0  0  0  0  0  0  0  0  0  0  0  0
   27.9140   11.5590    6.8400 C   0  0  0  0  0  0  0  0  0  0  0  0
   29.1200   10.9330    6.9660 N   0  0  0  0  0  0  0  0  0  0  0  0
   30.6280   11.6380    6.7330 S   0  0  0  0  0  6  0  0  0  0  0  0
   31.5810   10.7280    7.3390 O   0  0  0  0  0  0  0  0  0  0  0  0
   30.6880   12.0080    5.3330 O   0  0  0  0  0  0  0  0  0  0  0  0
   30.5540   13.1180    7.7020 C   0  0  0  0  0  0  0  0  0  0  0  0
   31.7330   13.7720    8.0700 C   0  0  0  0  0  0  0  0  0  0  0  0
   31.6610   14.9310    8.8410 C   0  0  0  0  0  0  0  0  0  0  0  0
   30.4190   15.4410    9.2330 C   0  0  0  0  0  0  0  0  0  0  0  0
   29.2360   14.8000    8.8400 C   0  0  0  0  0  0  0  0  0  0  0  0
   27.8900   15.2990    9.2430 C   0  0  0  0  0  0  0  0  0  0  0  0
   27.8360   16.2450   10.4010 C   0  0  0  0  0  0  0  0  0  0  0  0
   26.6140   16.6830   10.7630 C   0  0  0  0  0  0  0  0  0  0  0  0
   26.5580   17.6250   11.9170 C   0  0  0  0  0  0  0  0  0  0  0  0
   27.4440   18.4560   12.1090 O   0  0  0  0  0  0  0  0  0  0  0  0
   25.4780   17.5070   12.7460 N   0  0  0  0  0  0  0  0  0  0  0  0
   25.3140   18.3250   13.9360 C   0  0  1  0  0  0  0  0  0  0  0  0
   26.2100   17.8440   15.0740 C   0  0  0  0  0  0  0  0  0  0  0  0
   26.0060   18.7300   16.2920 C   0  0  0  0  0  0  0  0  0  0  0  0
   26.2540   20.1830   15.9630 C   0  0  0  0  0  0  0  0  0  0  0  0
   26.7140   20.9740   16.7800 O   0  0  0  0  0  0  0  0  0  0  0  0
   25.9050   20.5940   14.7020 N   0  0  0  0  0  0  0  0  0  0  0  0
   25.6460   19.7890   13.6180 C   0  0  0  0  0  0  0  0  0  0  0  0
   25.6590   20.2500   12.4780 O   0  0  0  0  0  0  0  0  0  0  0  0
   25.4940   16.2520   10.0510 N   0  0  0  0  0  0  0  0  0  0  0  0
   24.1810   16.5780   10.2480 N   0  0  0  0  0  0  0  0  0  0  0  0
   23.5210   15.9010    9.3080 C   0  0  0  0  0  0  0  0  0  0  0  0
   24.3670   15.1450    8.4880 C   0  0  0  0  0  0  0  0  0  0  0  0
   25.6340   15.3760    8.9680 C   0  0  0  0  0  0  0  0  0  0  0  0
   26.8480   14.9050    8.5640 N   0  0  0  0  0  0  0  0  0  0  0  0
   29.3060   13.6290    8.0750 C   0  0  0  0  0  0  0  0  0  0  0  0
   28.9330    9.7190    7.5480 C   0  0  0  0  0  0  0  0  0  0  0  0
   27.6540    9.5050    7.7690 N   0  0  0  0  0  0  0  0  0  0  0  0
   24.7464    9.1845    8.6779 H   0  0  0  0  0  0  0  0  0  0  0  0
   23.8606    9.4192    7.1330 H   0  0  0  0  0  0  0  0  0  0  0  0
   25.4708    8.6230    7.1330 H   0  0  0  0  0  0  0  0  0  0  0  0
   25.1404   11.2209    6.5069 H   0  0  0  0  0  0  0  0  0  0  0  0
   25.2902   11.3655    8.3119 H   0  0  0  0  0  0  0  0  0  0  0  0
   27.7132   12.5644    6.4415 H   0  0  0  0  0  0  0  0  0  0  0  0
   32.7092   13.3756    7.7540 H   0  0  0  0  0  0  0  0  0  0  0  0
   32.5847   15.4467    9.1424 H   0  0  0  0  0  0  0  0  0  0  0  0
   30.3704   16.3488    9.8522 H   0  0  0  0  0  0  0  0  0  0  0  0
   28.7459   16.5661   10.9291 H   0  0  0  0  0  0  0  0  0  0  0  0
   24.7527   16.8119   12.5188 H   0  0  0  0  0  0  0  0  0  0  0  0
   24.2654   18.2380   14.2569 H   0  0  0  0  0  0  0  0  0  0  0  0
   25.9521   16.8056   15.3292 H   0  0  0  0  0  0  0  0  0  0  0  0
   27.2622   17.8946   14.7572 H   0  0  0  0  0  0  0  0  0  0  0  0
   24.9720   18.6152   16.6492 H   0  0  0  0  0  0  0  0  0  0  0  0
   26.7228   18.4230   17.0679 H   0  0  0  0  0  0  0  0  0  0  0  0
   25.8291   21.6101   14.5516 H   0  0  0  0  0  0  0  0  0  0  0  0
   22.4279   15.9331    9.1894 H   0  0  0  0  0  0  0  0  0  0  0  0
   24.0796   14.5040    7.6416 H   0  0  0  0  0  0  0  0  0  0  0  0
   28.3839   13.1133    7.7687 H   0  0  0  0  0  0  0  0  0  0  0  0
   29.7389    9.0137    7.7992 H   0  0  0  0  0  0  0  0  0  0  0  0
  1  2  1  0
  2  3  1  0
  3  4  2  0
  4  5  1  0
  5  6  1  0
  6  7  2  0
  6  8  2  0
  6  9  1  0
  9 10  2  0
 10 11  1  0
 11 12  2  0
 12 13  1  0
 13 14  1  0
 14 15  1  0
 15 16  2  0
 16 17  1  0
 17 18  2  0
 17 19  1  0
 19 20  1  0
 20 21  1  0
 21 22  1  0
 22 23  1  0
 23 24  2  0
 23 25  1  0
 25 26  1  0
 26 27  2  0
 16 28  1  0
 28 29  1  0
 29 30  2  0
 30 31  1  0
 31 32  2  0
 32 33  1  0
 13 34  2  0
  5 35  1  0
 35 36  2  0
 36  3  1  0
 34  9  1  0
 33 14  2  0
 26 20  1  0
 32 28  1  0
  1 37  1  0
  1 38  1  0
  1 39  1  0
  2 40  1  0
  2 41  1  0
  4 42  1  0
 10 43  1  0
 11 44  1  0
 12 45  1  0
 15 46  1  0
 19 47  1  0
 20 48  1  1
 21 49  1  0
 21 50  1  0
 22 51  1  0
 22 52  1  0
 25 53  1  0
 30 54  1  0
 31 55  1  0
 34 56  1  0
 35 57  1  0
M  END
>  <meeko>  (596) 
{"is_sidechain": [true], "free_energy": -12.01, "intermolecular_energy": 0.0, "internal_energy": -12.01, "cluster_size": 6, "cluster_id": 1, "rank_in_cluster": 1}

>  <_RMSD_MCS_to_ref>  (596) 
0.9791170625733274

$$$$
ligand
     RDKit          3D

 63 68  0  0  0  0  0  0  0  0999 V2000
   24.8710    9.6160    7.7820 C   0  0  0  0  0  0  0  0  0  0  0  0
   25.4240   10.9650    7.3490 C   0  0  0  0  0  0  0  0  0  0  0  0
   25.0160   11.3220    5.9640 C   0  0  0  0  0  0  0  0  0  0  0  0
   24.4930   12.5110    5.4920 C   0  0  0  0  0  0  0  0  0  0  0  0
   24.3260   12.2940    4.1510 N   0  0  0  0  0  0  0  0  0  0  0  0
   23.5470   13.3270    3.0810 S   0  0  0  0  0  6  0  0  0  0  0  0
   23.0360   12.5420    1.9750 O   0  0  0  0  0  0  0  0  0  0  0  0
   22.6330   14.0490    3.9530 O   0  0  0  0  0  0  0  0  0  0  0  0
   24.7370   14.5160    2.4700 C   0  0  0  0  0  0  0  0  0  0  0  0
   24.6730   14.7260    1.0740 C   0  0  0  0  0  0  0  0  0  0  0  0
   25.4510   15.6960    0.4480 C   0  0  0  0  0  0  0  0  0  0  0  0
   26.3100   16.4760    1.2050 C   0  0  0  0  0  0  0  0  0  0  0  0
   26.4040   16.2730    2.5850 C   0  0  0  0  0  0  0  0  0  0  0  0
   25.6350   15.2860    3.2410 C   0  0  0  0  0  0  0  0  0  0  0  0
   25.8570   15.0980    4.6360 N   0  0  0  0  0  0  0  0  0  0  0  0
   25.1140   15.5900    5.6920 C   0  0  0  0  0  0  0  0  0  0  0  0
   25.7260   15.1890    6.8600 C   0  0  0  0  0  0  0  0  0  0  0  0
   25.2710   15.5030    8.2040 C   0  0  0  0  0  0  0  0  0  0  0  0
   24.0780   14.9180    8.6920 C   0  0  0  0  0  0  0  0  0  0  0  0
   23.6030   15.2000    9.9770 C   0  0  0  0  0  0  0  0  0  0  0  0
   24.3450   16.0720   10.7500 C   0  0  0  0  0  0  0  0  0  0  0  0
   25.5180   16.6660   10.2940 C   0  0  0  0  0  0  0  0  0  0  0  0
   25.9930   16.3930    9.0210 C   0  0  0  0  0  0  0  0  0  0  0  0
   26.0640   17.5780   11.3410 C   0  0  0  0  0  0  0  0  0  0  0  0
   25.1660   17.3490   12.4660 N   0  0  0  0  0  0  0  0  0  0  0  0
   25.2000   18.2050   13.6480 C   0  0  2  0  0  0  0  0  0  0  0  0
   25.7810   19.5950   13.3880 C   0  0  0  0  0  0  0  0  0  0  0  0
   25.7090   20.4170   14.6640 C   0  0  0  0  0  0  0  0  0  0  0  0
   26.4240   19.7270   15.8030 C   0  0  0  0  0  0  0  0  0  0  0  0
   26.8470   20.3420   16.7770 O   0  0  0  0  0  0  0  0  0  0  0  0
   26.5020   18.3580   15.7420 N   0  0  0  0  0  0  0  0  0  0  0  0
   25.9340   17.5200   14.8100 C   0  0  0  0  0  0  0  0  0  0  0  0
   25.9390   16.3030   14.9850 O   0  0  0  0  0  0  0  0  0  0  0  0
   24.0900   16.5490   12.1130 C   0  0  0  0  0  0  0  0  0  0  0  0
   23.0990   16.2800   12.7640 O   0  0  0  0  0  0  0  0  0  0  0  0
   26.8400   14.4580    6.4120 C   0  0  0  0  0  0  0  0  0  0  0  0
   26.9120   14.3990    5.0830 N   0  0  0  0  0  0  0  0  0  0  0  0
   24.6380   11.0000    3.8720 C   0  0  0  0  0  0  0  0  0  0  0  0
   25.1050   10.3940    4.9450 N   0  0  0  0  0  0  0  0  0  0  0  0
   24.8497    9.5640    8.8806 H   0  0  0  0  0  0  0  0  0  0  0  0
   23.8507    9.4948    7.3893 H   0  0  0  0  0  0  0  0  0  0  0  0
   25.5127    8.8135    7.3893 H   0  0  0  0  0  0  0  0  0  0  0  0
   25.0522   11.7377    8.0380 H   0  0  0  0  0  0  0  0  0  0  0  0
   26.5220   10.9025    7.3717 H   0  0  0  0  0  0  0  0  0  0  0  0
   24.2636   13.4227    6.0631 H   0  0  0  0  0  0  0  0  0  0  0  0
   23.9930   14.1090    0.4682 H   0  0  0  0  0  0  0  0  0  0  0  0
   25.3842   15.8421   -0.6402 H   0  0  0  0  0  0  0  0  0  0  0  0
   26.9177   17.2545    0.7206 H   0  0  0  0  0  0  0  0  0  0  0  0
   27.0929   16.8964    3.1739 H   0  0  0  0  0  0  0  0  0  0  0  0
   24.1978   16.1938    5.6144 H   0  0  0  0  0  0  0  0  0  0  0  0
   23.5133   14.2279    8.0479 H   0  0  0  0  0  0  0  0  0  0  0  0
   22.6760   14.7457   10.3568 H   0  0  0  0  0  0  0  0  0  0  0  0
   26.9178   16.8635    8.6557 H   0  0  0  0  0  0  0  0  0  0  0  0
   27.0993   17.3106   11.5992 H   0  0  0  0  0  0  0  0  0  0  0  0
   26.1065   18.6304   11.0239 H   0  0  0  0  0  0  0  0  0  0  0  0
   24.1479   18.3603   13.9292 H   0  0  0  0  0  0  0  0  0  0  0  0
   26.8299   19.5011   13.0703 H   0  0  0  0  0  0  0  0  0  0  0  0
   25.2029   20.0934   12.5959 H   0  0  0  0  0  0  0  0  0  0  0  0
   26.1786   21.3958   14.4867 H   0  0  0  0  0  0  0  0  0  0  0  0
   24.6511   20.5372   14.9403 H   0  0  0  0  0  0  0  0  0  0  0  0
   27.0525   17.9027   16.4839 H   0  0  0  0  0  0  0  0  0  0  0  0
   27.5717   13.9866    7.0846 H   0  0  0  0  0  0  0  0  0  0  0  0
   24.5173   10.5251    2.8872 H   0  0  0  0  0  0  0  0  0  0  0  0
  1  2  1  0
  2  3  1  0
  3  4  2  0
  4  5  1  0
  5  6  1  0
  6  7  2  0
  6  8  2  0
  6  9  1  0
  9 10  2  0
 10 11  1  0
 11 12  2  0
 12 13  1  0
 13 14  2  0
 14 15  1  0
 15 16  1  0
 16 17  2  0
 17 18  1  0
 18 19  2  0
 19 20  1  0
 20 21  2  0
 21 22  1  0
 22 23  2  0
 22 24  1  0
 24 25  1  0
 25 26  1  0
 26 27  1  0
 27 28  1  0
 28 29  1  0
 29 30  2  0
 29 31  1  0
 31 32  1  0
 32 33  2  0
 25 34  1  0
 34 35  2  0
 17 36  1  0
 36 37  2  0
  5 38  1  0
 38 39  2  0
 39  3  1  0
 14  9  1  0
 37 15  1  0
 23 18  1  0
 32 26  1  0
 34 21  1  0
  1 40  1  0
  1 41  1  0
  1 42  1  0
  2 43  1  0
  2 44  1  0
  4 45  1  0
 10 46  1  0
 11 47  1  0
 12 48  1  0
 13 49  1  0
 16 50  1  0
 19 51  1  0
 20 52  1  0
 23 53  1  0
 24 54  1  0
 24 55  1  0
 26 56  1  1
 27 57  1  0
 27 58  1  0
 28 59  1  0
 28 60  1  0
 31 61  1  0
 36 62  1  0
 38 63  1  0
M  END
>  <meeko>  (597) 
{"is_sidechain": [true], "free_energy": -12.01, "intermolecular_energy": 0.0, "internal_energy": -12.01, "cluster_size": 2, "cluster_id": 2, "rank_in_cluster": 1}

>  <_RMSD_MCS_to_ref>  (597) 
1.7410181685318207

$$$$
ligand
     RDKit          3D

 49 52  0  0  0  0  0  0  0  0999 V2000
   24.8710    9.6160    7.7820 C   0  0  0  0  0  0  0  0  0  0  0  0
   25.4240   10.9650    7.3490 C   0  0  0  0  0  0  0  0  0  0  0  0
   26.4670   11.4710    8.2810 C   0  0  0  0  0  0  0  0  0  0  0  0
   27.1510   12.6700    8.2530 C   0  0  0  0  0  0  0  0  0  0  0  0
   27.9580   12.6200    9.3550 N   0  0  0  0  0  0  0  0  0  0  0  0
   29.1920   13.7050    9.7390 S   0  0  0  0  0  6  0  0  0  0  0  0
   29.8330   13.1490   10.9170 O   0  0  0  0  0  0  0  0  0  0  0  0
   29.9230   13.8670    8.4970 O   0  0  0  0  0  0  0  0  0  0  0  0
   28.4770   15.1220   10.1020 O   0  0  0  0  0  0  0  0  0  0  0  0
   27.1640   15.2900   10.0920 C   0  0  0  0  0  0  0  0  0  0  0  0
   26.1270   15.0940    9.2090 C   0  0  0  0  0  0  0  0  0  0  0  0
   24.9400   15.5070    9.8760 C   0  0  0  0  0  0  0  0  0  0  0  0
   23.5760   15.5640    9.5400 C   0  0  0  0  0  0  0  0  0  0  0  0
   22.6670   16.0510   10.4870 C   0  0  0  0  0  0  0  0  0  0  0  0
   23.1010   16.4750   11.7460 C   0  0  0  0  0  0  0  0  0  0  0  0
   24.4580   16.4260   12.1100 C   0  0  0  0  0  0  0  0  0  0  0  0
   24.8820   16.8930   13.4520 C   0  0  0  0  0  0  0  0  0  0  0  0
   25.0800   16.0830   14.3510 O   0  0  0  0  0  0  0  0  0  0  0  0
   25.0290   18.2470   13.6320 N   0  0  0  0  0  0  0  0  0  0  0  0
   25.2920   18.8310   14.9380 C   0  0  1  0  0  0  0  0  0  0  0  0
   26.3780   18.0750   15.6960 C   0  0  0  0  0  0  0  0  0  0  0  0
   26.6230   18.7510   17.0370 C   0  0  0  0  0  0  0  0  0  0  0  0
   26.9700   20.2100   16.8590 C   0  0  0  0  0  0  0  0  0  0  0  0
   27.7500   20.7970   17.6040 O   0  0  0  0  0  0  0  0  0  0  0  0
   26.3440   20.8710   15.8330 N   0  0  0  0  0  0  0  0  0  0  0  0
   25.7350   20.2850   14.7500 C   0  0  0  0  0  0  0  0  0  0  0  0
   25.5570   20.9150   13.7070 O   0  0  0  0  0  0  0  0  0  0  0  0
   25.3370   15.9320   11.1410 C   0  0  0  0  0  0  0  0  0  0  0  0
   26.6900   15.7890   11.2650 O   0  0  0  0  0  0  0  0  0  0  0  0
   27.8070   11.4170    9.9650 C   0  0  0  0  0  0  0  0  0  0  0  0
   26.8900   10.7010    9.3470 N   0  0  0  0  0  0  0  0  0  0  0  0
   24.8497    9.5640    8.8806 H   0  0  0  0  0  0  0  0  0  0  0  0
   23.8507    9.4948    7.3893 H   0  0  0  0  0  0  0  0  0  0  0  0
   25.5127    8.8135    7.3893 H   0  0  0  0  0  0  0  0  0  0  0  0
   25.8649   10.8617    6.3465 H   0  0  0  0  0  0  0  0  0  0  0  0
   24.5932   11.6859    7.3491 H   0  0  0  0  0  0  0  0  0  0  0  0
   27.0660   13.4798    7.5134 H   0  0  0  0  0  0  0  0  0  0  0  0
   26.2013   14.6955    8.1864 H   0  0  0  0  0  0  0  0  0  0  0  0
   23.2290   15.2318    8.5504 H   0  0  0  0  0  0  0  0  0  0  0  0
   21.5970   16.1006   10.2368 H   0  0  0  0  0  0  0  0  0  0  0  0
   22.3641   16.8557   12.4685 H   0  0  0  0  0  0  0  0  0  0  0  0
   24.9504   18.8693   12.8150 H   0  0  0  0  0  0  0  0  0  0  0  0
   24.3660   18.7722   15.5288 H   0  0  0  0  0  0  0  0  0  0  0  0
   26.0546   17.0368   15.8621 H   0  0  0  0  0  0  0  0  0  0  0  0
   27.3073   18.0791   15.1075 H   0  0  0  0  0  0  0  0  0  0  0  0
   25.7134   18.6710   17.6504 H   0  0  0  0  0  0  0  0  0  0  0  0
   27.4692   18.2498   17.5298 H   0  0  0  0  0  0  0  0  0  0  0  0
   26.3292   21.8999   15.8787 H   0  0  0  0  0  0  0  0  0  0  0  0
   28.3705   11.0867   10.8501 H   0  0  0  0  0  0  0  0  0  0  0  0
  1  2  1  0
  2  3  1  0
  3  4  2  0
  4  5  1  0
  5  6  1  0
  6  7  2  0
  6  8  2  0
  6  9  1  0
  9 10  1  0
 10 11  2  0
 11 12  1  0
 12 13  2  0
 13 14  1  0
 14 15  2  0
 15 16  1  0
 16 17  1  0
 17 18  2  0
 17 19  1  0
 19 20  1  0
 20 21  1  0
 21 22  1  0
 22 23  1  0
 23 24  2  0
 23 25  1  0
 25 26  1  0
 26 27  2  0
 16 28  2  0
 28 29  1  0
  5 30  1  0
 30 31  2  0
 31  3  1  0
 29 10  1  0
 28 12  1  0
 26 20  1  0
  1 32  1  0
  1 33  1  0
  1 34  1  0
  2 35  1  0
  2 36  1  0
  4 37  1  0
 11 38  1  0
 13 39  1  0
 14 40  1  0
 15 41  1  0
 19 42  1  0
 20 43  1  1
 21 44  1  0
 21 45  1  0
 22 46  1  0
 22 47  1  0
 25 48  1  0
 30 49  1  0
M  END
>  <meeko>  (598) 
{"is_sidechain": [true], "free_energy": -12.01, "intermolecular_energy": 0.0, "internal_energy": -12.01, "cluster_size": 11, "cluster_id": 1, "rank_in_cluster": 1}

>  <_RMSD_MCS_to_ref>  (598) 
0.9382081621663476

$$$$
ligand
     RDKit          3D

 58 62  0  0  0  0  0  0  0  0999 V2000
   24.8540    9.4020    7.6050 C   0  0  0  0  0  0  0  0  0  0  0  0
   25.5230   10.7550    7.4270 C   0  0  0  0  0  0  0  0  0  0  0  0
   26.9260   10.6300    6.9460 C   0  0  0  0  0  0  0  0  0  0  0  0
   28.0970   10.6040    7.6780 C   0  0  0  0  0  0  0  0  0  0  0  0
   29.0760   10.4460    6.7380 N   0  0  0  0  0  0  0  0  0  0  0  0
   30.7340   10.5800    7.0110 S   0  0  0  0  0  6  0  0  0  0  0  0
   31.3420   10.3100    5.7210 O   0  0  0  0  0  0  0  0  0  0  0  0
   30.9850    9.7330    8.1620 O   0  0  0  0  0  0  0  0  0  0  0  0
   30.9950   12.1360    7.4170 O   0  0  0  0  0  0  0  0  0  0  0  0
   30.1470   12.8440    8.2290 C   0  0  0  0  0  0  0  0  0  0  0  0
   30.3910   13.1780    9.5620 C   0  0  0  0  0  0  0  0  0  0  0  0
   29.4430   13.9070   10.2930 C   0  0  0  0  0  0  0  0  0  0  0  0
   28.2520   14.3230    9.6960 C   0  0  0  0  0  0  0  0  0  0  0  0
   27.2740   14.9970   10.4350 N   0  0  0  0  0  0  0  0  0  0  0  0
   26.0850   15.5060    9.8720 C   0  0  0  0  0  0  0  0  0  0  0  0
   25.1530   16.2480   10.6270 C   0  0  0  0  0  0  0  0  0  0  0  0
   25.4520   16.5820   12.0520 C   0  0  0  0  0  0  0  0  0  0  0  0
   25.8670   15.7180   12.8200 O   0  0  0  0  0  0  0  0  0  0  0  0
   25.2040   17.8760   12.4520 N   0  0  0  0  0  0  0  0  0  0  0  0
   25.3080   18.2650   13.8530 C   0  0  1  0  0  0  0  0  0  0  0  0
   26.6190   17.8080   14.4840 C   0  0  0  0  0  0  0  0  0  0  0  0
   26.6800   18.2840   15.9270 C   0  0  0  0  0  0  0  0  0  0  0  0
   26.5030   19.7810   16.0190 C   0  0  0  0  0  0  0  0  0  0  0  0
   27.0710   20.4610   16.8690 O   0  0  0  0  0  0  0  0  0  0  0  0
   25.6440   20.3560   15.1170 N   0  0  0  0  0  0  0  0  0  0  0  0
   25.2210   19.7920   13.9390 C   0  0  0  0  0  0  0  0  0  0  0  0
   24.7860   20.4850   13.0190 O   0  0  0  0  0  0  0  0  0  0  0  0
   23.9640   16.7010   10.0270 C   0  0  0  0  0  0  0  0  0  0  0  0
   23.6770   16.3870    8.6970 C   0  0  0  0  0  0  0  0  0  0  0  0
   24.5740   15.6240    7.9540 C   0  0  0  0  0  0  0  0  0  0  0  0
   25.7670   15.1860    8.5400 C   0  0  0  0  0  0  0  0  0  0  0  0
   26.7280   14.3810    7.7410 C   0  0  0  0  0  0  0  0  0  0  0  0
   26.4720   14.0710    6.5820 O   0  0  0  0  0  0  0  0  0  0  0  0
   28.0070   13.9640    8.3650 C   0  0  0  0  0  0  0  0  0  0  0  0
   28.9490   13.2360    7.6310 C   0  0  0  0  0  0  0  0  0  0  0  0
   28.5130   10.4630    5.5030 C   0  0  0  0  0  0  0  0  0  0  0  0
   27.2020   10.5450    5.5950 N   0  0  0  0  0  0  0  0  0  0  0  0
   24.7464    9.1845    8.6779 H   0  0  0  0  0  0  0  0  0  0  0  0
   23.8606    9.4192    7.1330 H   0  0  0  0  0  0  0  0  0  0  0  0
   25.4708    8.6230    7.1330 H   0  0  0  0  0  0  0  0  0  0  0  0
   24.9483   11.3406    6.6944 H   0  0  0  0  0  0  0  0  0  0  0  0
   25.5456   11.2520    8.4080 H   0  0  0  0  0  0  0  0  0  0  0  0
   28.2146   10.6907    8.7683 H   0  0  0  0  0  0  0  0  0  0  0  0
   31.3314   12.8678   10.0410 H   0  0  0  0  0  0  0  0  0  0  0  0
   29.6395   14.1535   11.3469 H   0  0  0  0  0  0  0  0  0  0  0  0
   27.4305   15.1287   11.4445 H   0  0  0  0  0  0  0  0  0  0  0  0
   24.9404   18.5813   11.7491 H   0  0  0  0  0  0  0  0  0  0  0  0
   24.4874   17.7823   14.4040 H   0  0  0  0  0  0  0  0  0  0  0  0
   26.6755   16.7098   14.4575 H   0  0  0  0  0  0  0  0  0  0  0  0
   27.4640   18.2323   13.9219 H   0  0  0  0  0  0  0  0  0  0  0  0
   25.8802   17.7927   16.5005 H   0  0  0  0  0  0  0  0  0  0  0  0
   27.6677   18.0254   16.3364 H   0  0  0  0  0  0  0  0  0  0  0  0
   25.2845   21.2942   15.3438 H   0  0  0  0  0  0  0  0  0  0  0  0
   23.2550   17.3072   10.6100 H   0  0  0  0  0  0  0  0  0  0  0  0
   22.7432   16.7421    8.2367 H   0  0  0  0  0  0  0  0  0  0  0  0
   24.3455   15.3662    6.9093 H   0  0  0  0  0  0  0  0  0  0  0  0
   28.7454   12.9726    6.5826 H   0  0  0  0  0  0  0  0  0  0  0  0
   29.0734   10.4150    4.5577 H   0  0  0  0  0  0  0  0  0  0  0  0
  1  2  1  0
  2  3  1  0
  3  4  2  0
  4  5  1  0
  5  6  1  0
  6  7  2  0
  6  8  2  0
  6  9  1  0
  9 10  1  0
 10 11  2  0
 11 12  1  0
 12 13  2  0
 13 14  1  0
 14 15  1  0
 15 16  2  0
 16 17  1  0
 17 18  2  0
 17 19  1  0
 19 20  1  0
 20 21  1  0
 21 22  1  0
 22 23  1  0
 23 24  2  0
 23 25  1  0
 25 26  1  0
 26 27  2  0
 16 28  1  0
 28 29  2  0
 29 30  1  0
 30 31  2  0
 31 32  1  0
 32 33  2  0
 32 34  1  0
 34 35  2  0
  5 36  1  0
 36 37  2  0
 37  3  1  0
 35 10  1  0
 34 13  1  0
 31 15  1  0
 26 20  1  0
  1 38  1  0
  1 39  1  0
  1 40  1  0
  2 41  1  0
  2 42  1  0
  4 43  1  0
 11 44  1  0
 12 45  1  0
 14 46  1  0
 19 47  1  0
 20 48  1  1
 21 49  1  0
 21 50  1  0
 22 51  1  0
 22 52  1  0
 25 53  1  0
 28 54  1  0
 29 55  1  0
 30 56  1  0
 35 57  1  0
 36 58  1  0
M  END
>  <meeko>  (599) 
{"is_sidechain": [true], "free_energy": -12.0, "intermolecular_energy": 0.0, "internal_energy": -12.0, "cluster_size": 19, "cluster_id": 1, "rank_in_cluster": 1}

>  <_RMSD_MCS_to_ref>  (599) 
0.8496353466177252

$$$$
ligand
     RDKit          3D

 61 66  0  0  0  0  0  0  0  0999 V2000
   24.8710    9.6160    7.7820 C   0  0  0  0  0  0  0  0  0  0  0  0
   25.4240   10.9650    7.3490 C   0  0  0  0  0  0  0  0  0  0  0  0
   25.5470   11.0740    5.8700 C   0  0  0  0  0  0  0  0  0  0  0  0
   24.5530   11.0870    4.9130 C   0  0  0  0  0  0  0  0  0  0  0  0
   25.2270   11.1730    3.7290 N   0  0  0  0  0  0  0  0  0  0  0  0
   24.5350   11.4700    2.2210 S   0  0  0  0  0  6  0  0  0  0  0  0
   23.2740   10.7540    2.2460 O   0  0  0  0  0  0  0  0  0  0  0  0
   25.5760   11.1400    1.2650 O   0  0  0  0  0  0  0  0  0  0  0  0
   24.2450   13.0730    2.1700 O   0  0  0  0  0  0  0  0  0  0  0  0
   25.0120   13.9860    2.8480 C   0  0  0  0  0  0  0  0  0  0  0  0
   26.0720   14.7120    2.3110 C   0  0  0  0  0  0  0  0  0  0  0  0
   26.7680   15.6110    3.1200 C   0  0  0  0  0  0  0  0  0  0  0  0
   26.4000   15.7790    4.4670 C   0  0  0  0  0  0  0  0  0  0  0  0
   27.0380   16.6480    5.3380 C   0  0  0  0  0  0  0  0  0  0  0  0
   26.6870   16.8110    6.6270 N   0  0  0  0  0  0  0  0  0  0  0  0
   25.6530   16.0670    7.0630 C   0  0  0  0  0  0  0  0  0  0  0  0
   25.2400   16.2190    8.4760 C   0  0  0  0  0  0  0  0  0  0  0  0
   24.0950   15.5450    8.9830 C   0  0  0  0  0  0  0  0  0  0  0  0
   23.6830   15.6720   10.3150 C   0  0  0  0  0  0  0  0  0  0  0  0
   24.4380   16.4830   11.1360 C   0  0  0  0  0  0  0  0  0  0  0  0
   25.5640   17.1640   10.6850 C   0  0  0  0  0  0  0  0  0  0  0  0
   25.9730   17.0410    9.3650 C   0  0  0  0  0  0  0  0  0  0  0  0
   26.1620   17.9630   11.7960 C   0  0  0  0  0  0  0  0  0  0  0  0
   25.2870   17.6430   12.9180 N   0  0  0  0  0  0  0  0  0  0  0  0
   25.3190   18.3370   14.2010 C   0  0  2  0  0  0  0  0  0  0  0  0
   26.0370   19.6810   14.0730 C   0  0  0  0  0  0  0  0  0  0  0  0
   25.9410   20.4440   15.3860 C   0  0  0  0  0  0  0  0  0  0  0  0
   26.4920   19.6290   16.5310 C   0  0  0  0  0  0  0  0  0  0  0  0
   27.0520   20.1440   17.4940 O   0  0  0  0  0  0  0  0  0  0  0  0
   26.3090   18.2720   16.4620 N   0  0  0  0  0  0  0  0  0  0  0  0
   25.9370   17.5370   15.3590 C   0  0  0  0  0  0  0  0  0  0  0  0
   26.0840   16.3170   15.3590 O   0  0  0  0  0  0  0  0  0  0  0  0
   24.2410   16.8120   12.5510 C   0  0  0  0  0  0  0  0  0  0  0  0
   23.3040   16.4440   13.2330 O   0  0  0  0  0  0  0  0  0  0  0  0
   24.9660   15.1950    6.2970 N   0  0  0  0  0  0  0  0  0  0  0  0
   25.3400   15.0560    5.0180 C   0  0  0  0  0  0  0  0  0  0  0  0
   24.6620   14.1680    4.1930 C   0  0  0  0  0  0  0  0  0  0  0  0
   26.5560   11.2880    3.9820 C   0  0  0  0  0  0  0  0  0  0  0  0
   26.7880   11.2040    5.2750 N   0  0  0  0  0  0  0  0  0  0  0  0
   24.8497    9.5640    8.8806 H   0  0  0  0  0  0  0  0  0  0  0  0
   23.8507    9.4948    7.3893 H   0  0  0  0  0  0  0  0  0  0  0  0
   25.5127    8.8135    7.3893 H   0  0  0  0  0  0  0  0  0  0  0  0
   24.7490   11.7561    7.7075 H   0  0  0  0  0  0  0  0  0  0  0  0
   26.4304   11.0714    7.7801 H   0  0  0  0  0  0  0  0  0  0  0  0
   23.4651   11.0390    5.0687 H   0  0  0  0  0  0  0  0  0  0  0  0
   26.3584   14.5779    1.2574 H   0  0  0  0  0  0  0  0  0  0  0  0
   27.6059   16.1893    2.7035 H   0  0  0  0  0  0  0  0  0  0  0  0
   27.8815   17.2397    4.9528 H   0  0  0  0  0  0  0  0  0  0  0  0
   23.5134   14.9022    8.3058 H   0  0  0  0  0  0  0  0  0  0  0  0
   22.7931   15.1462   10.6914 H   0  0  0  0  0  0  0  0  0  0  0  0
   26.8638   17.5804    9.0106 H   0  0  0  0  0  0  0  0  0  0  0  0
   27.1976   17.6516   11.9975 H   0  0  0  0  0  0  0  0  0  0  0  0
   26.2232   19.0397   11.5795 H   0  0  0  0  0  0  0  0  0  0  0  0
   24.2605   18.4830   14.4623 H   0  0  0  0  0  0  0  0  0  0  0  0
   27.0953   19.5077   13.8279 H   0  0  0  0  0  0  0  0  0  0  0  0
   25.5633   20.2711   13.2746 H   0  0  0  0  0  0  0  0  0  0  0  0
   26.5154   21.3783   15.3012 H   0  0  0  0  0  0  0  0  0  0  0  0
   24.8812   20.6581   15.5884 H   0  0  0  0  0  0  0  0  0  0  0  0
   26.4674   17.7438   17.3320 H   0  0  0  0  0  0  0  0  0  0  0  0
   23.8238   13.5892    4.6082 H   0  0  0  0  0  0  0  0  0  0  0  0
   27.3304   11.4313    3.2140 H   0  0  0  0  0  0  0  0  0  0  0  0
  1  2  1  0
  2  3  1  0
  3  4  2  0
  4  5  1  0
  5  6  1  0
  6  7  2  0
  6  8  2  0
  6  9  1  0
  9 10  1  0
 10 11  2  0
 11 12  1  0
 12 13  2  0
 13 14  1  0
 14 15  2  0
 15 16  1  0
 16 17  1  0
 17 18  2  0
 18 19  1  0
 19 20  2  0
 20 21  1  0
 21 22  2  0
 21 23  1  0
 23 24  1  0
 24 25  1  0
 25 26  1  0
 26 27  1  0
 27 28  1  0
 28 29  2  0
 28 30  1  0
 30 31  1  0
 31 32  2  0
 24 33  1  0
 33 34  2  0
 16 35  2  0
 35 36  1  0
 36 37  2  0
  5 38  1  0
 38 39  2  0
 39  3  1  0
 37 10  1  0
 36 13  1  0
 22 17  1  0
 31 25  1  0
 33 20  1  0
  1 40  1  0
  1 41  1  0
  1 42  1  0
  2 43  1  0
  2 44  1  0
  4 45  1  0
 11 46  1  0
 12 47  1  0
 14 48  1  0
 18 49  1  0
 19 50  1  0
 22 51  1  0
 23 52  1  0
 23 53  1  0
 25 54  1  1
 26 55  1  0
 26 56  1  0
 27 57  1  0
 27 58  1  0
 30 59  1  0
 37 60  1  0
 38 61  1  0
M  END
>  <meeko>  (600) 
{"is_sidechain": [true], "free_energy": -12.0, "intermolecular_energy": 0.0, "internal_energy": -12.0, "cluster_size": 2, "cluster_id": 2, "rank_in_cluster": 1}

>  <_RMSD_MCS_to_ref>  (600) 
1.6572234229832172

$$$$
ligand
     RDKit          3D

 59 64  0  0  0  0  0  0  0  0999 V2000
   24.8710    9.6160    7.7820 C   0  0  0  0  0  0  0  0  0  0  0  0
   25.4240   10.9650    7.3490 C   0  0  0  0  0  0  0  0  0  0  0  0
   26.6200   10.8280    6.4740 C   0  0  0  0  0  0  0  0  0  0  0  0
   26.8180   11.3040    5.1930 C   0  0  0  0  0  0  0  0  0  0  0  0
   28.0690   10.8630    4.8620 N   0  0  0  0  0  0  0  0  0  0  0  0
   28.9580   11.3490    3.5150 S   0  0  0  0  0  6  0  0  0  0  0  0
   28.1630   10.9270    2.3760 O   0  0  0  0  0  0  0  0  0  0  0  0
   30.2930   10.8320    3.7480 O   0  0  0  0  0  0  0  0  0  0  0  0
   28.9950   12.9790    3.5680 O   0  0  0  0  0  0  0  0  0  0  0  0
   28.2160   13.7400    4.4120 C   0  0  0  0  0  0  0  0  0  0  0  0
   27.4060   14.7230    3.6950 C   0  0  0  0  0  0  0  0  0  0  0  0
   26.5940   15.5410    4.3860 C   0  0  0  0  0  0  0  0  0  0  0  0
   26.5450   15.4320    5.7710 N   0  0  0  0  0  0  0  0  0  0  0  0
   25.8040   16.1460    6.6800 C   0  0  0  0  0  0  0  0  0  0  0  0
   26.1350   15.6310    7.9160 C   0  0  0  0  0  0  0  0  0  0  0  0
   25.6080   16.0530    9.2070 C   0  0  0  0  0  0  0  0  0  0  0  0
   24.2850   15.6790    9.5640 C   0  0  0  0  0  0  0  0  0  0  0  0
   23.7150   16.0530   10.7870 C   0  0  0  0  0  0  0  0  0  0  0  0
   24.4990   16.8010   11.6400 C   0  0  0  0  0  0  0  0  0  0  0  0
   25.7880   17.1700   11.3070 C   0  0  0  0  0  0  0  0  0  0  0  0
   26.3720   16.8170   10.1030 C   0  0  0  0  0  0  0  0  0  0  0  0
   26.3220   17.9500   12.4190 C   0  0  0  0  0  0  0  0  0  0  0  0
   27.4320   18.4480   12.4350 O   0  0  0  0  0  0  0  0  0  0  0  0
   25.3500   17.9820   13.3820 N   0  0  0  0  0  0  0  0  0  0  0  0
   25.4610   18.7920   14.5860 C   0  0  2  0  0  0  0  0  0  0  0  0
   26.3070   20.0520   14.4200 C   0  0  0  0  0  0  0  0  0  0  0  0
   26.3140   20.8260   15.7290 C   0  0  0  0  0  0  0  0  0  0  0  0
   26.8100   19.9690   16.8720 C   0  0  0  0  0  0  0  0  0  0  0  0
   27.3580   20.4480   17.8600 O   0  0  0  0  0  0  0  0  0  0  0  0
   26.5650   18.6210   16.7820 N   0  0  0  0  0  0  0  0  0  0  0  0
   26.0140   17.9300   15.7260 C   0  0  0  0  0  0  0  0  0  0  0  0
   25.9300   16.7040   15.7590 O   0  0  0  0  0  0  0  0  0  0  0  0
   24.2100   17.3510   12.9630 C   0  0  0  0  0  0  0  0  0  0  0  0
   23.1360   17.2540   13.5250 O   0  0  0  0  0  0  0  0  0  0  0  0
   27.0610   14.6190    7.7850 N   0  0  0  0  0  0  0  0  0  0  0  0
   27.2950   14.5140    6.4940 C   0  0  0  0  0  0  0  0  0  0  0  0
   28.1570   13.6470    5.7600 C   0  0  0  0  0  0  0  0  0  0  0  0
   28.6130   10.2290    5.9310 C   0  0  0  0  0  0  0  0  0  0  0  0
   27.7480   10.1680    6.9220 N   0  0  0  0  0  0  0  0  0  0  0  0
   24.8497    9.5640    8.8806 H   0  0  0  0  0  0  0  0  0  0  0  0
   23.8507    9.4948    7.3893 H   0  0  0  0  0  0  0  0  0  0  0  0
   25.5127    8.8135    7.3893 H   0  0  0  0  0  0  0  0  0  0  0  0
   24.6421   11.5079    6.7977 H   0  0  0  0  0  0  0  0  0  0  0  0
   25.7286   11.5112    8.2539 H   0  0  0  0  0  0  0  0  0  0  0  0
   26.1274   11.9012    4.5794 H   0  0  0  0  0  0  0  0  0  0  0  0
   27.4606   14.7926    2.5986 H   0  0  0  0  0  0  0  0  0  0  0  0
   25.9768   16.2863    3.8630 H   0  0  0  0  0  0  0  0  0  0  0  0
   25.0944   16.9591    6.4670 H   0  0  0  0  0  0  0  0  0  0  0  0
   23.6912   15.0783    8.8594 H   0  0  0  0  0  0  0  0  0  0  0  0
   22.6883   15.7633   11.0553 H   0  0  0  0  0  0  0  0  0  0  0  0
   27.3991   17.1244    9.8568 H   0  0  0  0  0  0  0  0  0  0  0  0
   24.4463   19.1474   14.8184 H   0  0  0  0  0  0  0  0  0  0  0  0
   27.3366   19.7713   14.1531 H   0  0  0  0  0  0  0  0  0  0  0  0
   25.8828   20.6793   13.6222 H   0  0  0  0  0  0  0  0  0  0  0  0
   26.9732   21.7004   15.6246 H   0  0  0  0  0  0  0  0  0  0  0  0
   25.2835   21.1396   15.9522 H   0  0  0  0  0  0  0  0  0  0  0  0
   26.8250   18.0581   17.6045 H   0  0  0  0  0  0  0  0  0  0  0  0
   28.7725   12.9044    6.2889 H   0  0  0  0  0  0  0  0  0  0  0  0
   29.6345    9.8225    5.9652 H   0  0  0  0  0  0  0  0  0  0  0  0
  1  2  1  0
  2  3  1  0
  3  4  2  0
  4  5  1  0
  5  6  1  0
  6  7  2  0
  6  8  2  0
  6  9  1  0
  9 10  1  0
 10 11  1  0
 11 12  2  0
 12 13  1  0
 13 14  1  0
 14 15  2  0
 15 16  1  0
 16 17  2  0
 17 18  1  0
 18 19  2  0
 19 20  1  0
 20 21  2  0
 20 22  1  0
 22 23  2  0
 22 24  1  0
 24 25  1  0
 25 26  1  0
 26 27  1  0
 27 28  1  0
 28 29  2  0
 28 30  1  0
 30 31  1  0
 31 32  2  0
 24 33  1  0
 33 34  2  0
 15 35  1  0
 35 36  2  0
 36 37  1  0
  5 38  1  0
 38 39  2  0
 39  3  1  0
 37 10  2  0
 36 13  1  0
 21 16  1  0
 31 25  1  0
 33 19  1  0
  1 40  1  0
  1 41  1  0
  1 42  1  0
  2 43  1  0
  2 44  1  0
  4 45  1  0
 11 46  1  0
 12 47  1  0
 14 48  1  0
 17 49  1  0
 18 50  1  0
 21 51  1  0
 25 52  1  1
 26 53  1  0
 26 54  1  0
 27 55  1  0
 27 56  1  0
 30 57  1  0
 37 58  1  0
 38 59  1  0
M  END
>  <meeko>  (601) 
{"is_sidechain": [true], "free_energy": -12.0, "intermolecular_energy": 0.0, "internal_energy": -12.0, "cluster_size": 20, "cluster_id": 1, "rank_in_cluster": 1}

>  <_RMSD_MCS_to_ref>  (601) 
1.6890282787199835

$$$$
ligand
     RDKit          3D

 61 66  0  0  0  0  0  0  0  0999 V2000
   24.8710    9.6160    7.7820 C   0  0  0  0  0  0  0  0  0  0  0  0
   25.4240   10.9650    7.3490 C   0  0  0  0  0  0  0  0  0  0  0  0
   26.8250   11.1700    7.8050 C   0  0  0  0  0  0  0  0  0  0  0  0
   27.3090   12.0600    8.7440 C   0  0  0  0  0  0  0  0  0  0  0  0
   28.6510   11.8120    8.7830 N   0  0  0  0  0  0  0  0  0  0  0  0
   29.8030   12.7890    9.5310 S   0  0  0  0  0  6  0  0  0  0  0  0
   29.5310   12.6520   10.9500 O   0  0  0  0  0  0  0  0  0  0  0  0
   31.0710   12.3760    8.9570 O   0  0  0  0  0  0  0  0  0  0  0  0
   29.4720   14.3100    9.0270 O   0  0  0  0  0  0  0  0  0  0  0  0
   28.9070   14.4650    7.7850 C   0  0  0  0  0  0  0  0  0  0  0  0
   29.6400   14.0460    6.6670 C   0  0  0  0  0  0  0  0  0  0  0  0
   29.0350   14.2060    5.4170 C   0  0  0  0  0  0  0  0  0  0  0  0
   29.5050   13.9050    4.1580 N   0  0  0  0  0  0  0  0  0  0  0  0
   28.5660   14.2300    3.2140 C   0  0  0  0  0  0  0  0  0  0  0  0
   27.4730   14.7500    3.8690 C   0  0  0  0  0  0  0  0  0  0  0  0
   27.7570   14.7410    5.2610 C   0  0  0  0  0  0  0  0  0  0  0  0
   27.0410   15.1390    6.4090 C   0  0  0  0  0  0  0  0  0  0  0  0
   27.6110   14.9970    7.6880 C   0  0  0  0  0  0  0  0  0  0  0  0
   26.8550   15.4170    8.8790 C   0  0  0  0  0  0  0  0  0  0  0  0
   25.5810   14.8570    9.1450 C   0  0  0  0  0  0  0  0  0  0  0  0
   24.8370   15.2410   10.2630 C   0  0  0  0  0  0  0  0  0  0  0  0
   25.3960   16.1840   11.1030 C   0  0  0  0  0  0  0  0  0  0  0  0
   26.6430   16.7550   10.8670 C   0  0  0  0  0  0  0  0  0  0  0  0
   27.3840   16.3830    9.7580 C   0  0  0  0  0  0  0  0  0  0  0  0
   26.9580   17.7440   11.9390 C   0  0  0  0  0  0  0  0  0  0  0  0
   25.8420   17.5820   12.8600 N   0  0  0  0  0  0  0  0  0  0  0  0
   25.6540   18.4800   13.9960 C   0  0  2  0  0  0  0  0  0  0  0  0
   26.2410   19.8740   13.7760 C   0  0  0  0  0  0  0  0  0  0  0  0
   25.9360   20.7440   14.9860 C   0  0  0  0  0  0  0  0  0  0  0  0
   26.4630   20.1200   16.2580 C   0  0  0  0  0  0  0  0  0  0  0  0
   26.7150   20.7860   17.2570 O   0  0  0  0  0  0  0  0  0  0  0  0
   26.5680   18.7520   16.2740 N   0  0  0  0  0  0  0  0  0  0  0  0
   26.1990   17.8630   15.2920 C   0  0  0  0  0  0  0  0  0  0  0  0
   26.2180   16.6520   15.5100 O   0  0  0  0  0  0  0  0  0  0  0  0
   24.8570   16.7560   12.3420 C   0  0  0  0  0  0  0  0  0  0  0  0
   23.7480   16.5290   12.7840 O   0  0  0  0  0  0  0  0  0  0  0  0
   28.9550   10.8710    7.8540 C   0  0  0  0  0  0  0  0  0  0  0  0
   27.8630   10.4380    7.2590 N   0  0  0  0  0  0  0  0  0  0  0  0
   24.8497    9.5640    8.8806 H   0  0  0  0  0  0  0  0  0  0  0  0
   23.8507    9.4948    7.3893 H   0  0  0  0  0  0  0  0  0  0  0  0
   25.5127    8.8135    7.3893 H   0  0  0  0  0  0  0  0  0  0  0  0
   25.3967   11.0232    6.2509 H   0  0  0  0  0  0  0  0  0  0  0  0
   24.8016   11.7480    7.8068 H   0  0  0  0  0  0  0  0  0  0  0  0
   26.7421   12.8002    9.3276 H   0  0  0  0  0  0  0  0  0  0  0  0
   30.6453   13.6111    6.7682 H   0  0  0  0  0  0  0  0  0  0  0  0
   30.4280   13.4952    3.9553 H   0  0  0  0  0  0  0  0  0  0  0  0
   28.6678   14.0986    2.1266 H   0  0  0  0  0  0  0  0  0  0  0  0
   26.5454   15.1085    3.3988 H   0  0  0  0  0  0  0  0  0  0  0  0
   26.0313   15.5628    6.3042 H   0  0  0  0  0  0  0  0  0  0  0  0
   25.1693   14.1042    8.4567 H   0  0  0  0  0  0  0  0  0  0  0  0
   23.8457   14.8097   10.4662 H   0  0  0  0  0  0  0  0  0  0  0  0
   28.3689   16.8339    9.5664 H   0  0  0  0  0  0  0  0  0  0  0  0
   27.9142   17.5075   12.4286 H   0  0  0  0  0  0  0  0  0  0  0  0
   27.0706   18.7725   11.5654 H   0  0  0  0  0  0  0  0  0  0  0  0
   24.5662   18.6114   14.0935 H   0  0  0  0  0  0  0  0  0  0  0  0
   27.3303   19.7974   13.6436 H   0  0  0  0  0  0  0  0  0  0  0  0
   25.7954   20.3240   12.8766 H   0  0  0  0  0  0  0  0  0  0  0  0
   26.4074   21.7282   14.8477 H   0  0  0  0  0  0  0  0  0  0  0  0
   24.8442   20.8445   15.0750 H   0  0  0  0  0  0  0  0  0  0  0  0
   26.9732   18.3402   17.1267 H   0  0  0  0  0  0  0  0  0  0  0  0
   29.9725   10.5187    7.6291 H   0  0  0  0  0  0  0  0  0  0  0  0
  1  2  1  0
  2  3  1  0
  3  4  2  0
  4  5  1  0
  5  6  1  0
  6  7  2  0
  6  8  2  0
  6  9  1  0
  9 10  1  0
 10 11  2  0
 11 12  1  0
 12 13  1  0
 13 14  1  0
 14 15  2  0
 15 16  1  0
 16 17  1  0
 17 18  2  0
 18 19  1  0
 19 20  2  0
 20 21  1  0
 21 22  2  0
 22 23  1  0
 23 24  2  0
 23 25  1  0
 25 26  1  0
 26 27  1  0
 27 28  1  0
 28 29  1  0
 29 30  1  0
 30 31  2  0
 30 32  1  0
 32 33  1  0
 33 34  2  0
 26 35  1  0
 35 36  2  0
  5 37  1  0
 37 38  2  0
 38  3  1  0
 18 10  1  0
 24 19  1  0
 33 27  1  0
 16 12  2  0
 35 22  1  0
  1 39  1  0
  1 40  1  0
  1 41  1  0
  2 42  1  0
  2 43  1  0
  4 44  1  0
 11 45  1  0
 13 46  1  0
 14 47  1  0
 15 48  1  0
 17 49  1  0
 20 50  1  0
 21 51  1  0
 24 52  1  0
 25 53  1  0
 25 54  1  0
 27 55  1  1
 28 56  1  0
 28 57  1  0
 29 58  1  0
 29 59  1  0
 32 60  1  0
 37 61  1  0
M  END
>  <meeko>  (602) 
{"is_sidechain": [true], "free_energy": -11.99, "intermolecular_energy": 0.0, "internal_energy": -11.99, "cluster_size": 8, "cluster_id": 1, "rank_in_cluster": 1}

>  <_RMSD_MCS_to_ref>  (602) 
1.967874675085308

$$$$
ligand
     RDKit          3D

 55 58  0  0  0  0  0  0  0  0999 V2000
   24.8710    9.6160    7.7820 C   0  0  0  0  0  0  0  0  0  0  0  0
   25.4240   10.9650    7.3490 C   0  0  0  0  0  0  0  0  0  0  0  0
   26.5050   11.4460    8.2520 C   0  0  0  0  0  0  0  0  0  0  0  0
   27.3200   12.5520    8.1190 C   0  0  0  0  0  0  0  0  0  0  0  0
   28.0980   12.5330    9.2420 N   0  0  0  0  0  0  0  0  0  0  0  0
   29.4470   13.5040    9.5240 S   0  0  0  0  0  6  0  0  0  0  0  0
   29.8120   13.2270   10.9010 O   0  0  0  0  0  0  0  0  0  0  0  0
   30.3460   13.2090    8.4240 O   0  0  0  0  0  0  0  0  0  0  0  0
   28.9170   15.0400    9.3990 O   0  0  0  0  0  0  0  0  0  0  0  0
   27.6610   15.4230    9.7930 C   0  0  0  0  0  0  0  0  0  0  0  0
   27.6060   16.6270   10.4950 C   0  0  0  0  0  0  0  0  0  0  0  0
   26.3880   17.1080   10.9730 C   0  0  0  0  0  0  0  0  0  0  0  0
   25.2030   16.3850   10.7590 C   0  0  0  0  0  0  0  0  0  0  0  0
   25.2430   15.2080    9.9920 C   0  0  0  0  0  0  0  0  0  0  0  0
   26.4830   14.7130    9.5570 C   0  0  0  0  0  0  0  0  0  0  0  0
   24.0880   14.4410    9.7630 N   0  0  0  0  0  0  0  0  0  0  0  0
   22.8330   15.1750    9.8390 C   0  0  0  0  0  0  0  0  0  0  0  0
   22.7440   15.8800   11.1770 C   0  0  0  0  0  0  0  0  0  0  0  0
   23.8810   16.9010   11.3090 C   0  0  1  0  0  0  0  0  0  0  0  0
   23.9770   17.3440   12.7680 C   0  0  0  0  0  0  0  0  0  0  0  0
   23.1770   16.9600   13.6180 O   0  0  0  0  0  0  0  0  0  0  0  0
   25.0310   18.1760   13.0710 N   0  0  0  0  0  0  0  0  0  0  0  0
   25.1760   18.7680   14.3920 C   0  0  1  0  0  0  0  0  0  0  0  0
   26.1660   17.9940   15.2550 C   0  0  0  0  0  0  0  0  0  0  0  0
   26.2980   18.6720   16.6100 C   0  0  0  0  0  0  0  0  0  0  0  0
   26.6980   20.1210   16.4620 C   0  0  0  0  0  0  0  0  0  0  0  0
   27.4000   20.6980   17.2870 O   0  0  0  0  0  0  0  0  0  0  0  0
   26.2070   20.7850   15.3670 N   0  0  0  0  0  0  0  0  0  0  0  0
   25.6600   20.2130   14.2430 C   0  0  0  0  0  0  0  0  0  0  0  0
   25.5540   20.8500   13.1960 O   0  0  0  0  0  0  0  0  0  0  0  0
   27.8120   11.4170    9.9600 C   0  0  0  0  0  0  0  0  0  0  0  0
   26.8260   10.7460    9.3980 N   0  0  0  0  0  0  0  0  0  0  0  0
   24.8497    9.5640    8.8806 H   0  0  0  0  0  0  0  0  0  0  0  0
   23.8507    9.4948    7.3893 H   0  0  0  0  0  0  0  0  0  0  0  0
   25.5127    8.8135    7.3893 H   0  0  0  0  0  0  0  0  0  0  0  0
   25.8288   10.8714    6.3305 H   0  0  0  0  0  0  0  0  0  0  0  0
   24.6020   11.6950    7.3879 H   0  0  0  0  0  0  0  0  0  0  0  0
   27.3388   13.2822    7.2965 H   0  0  0  0  0  0  0  0  0  0  0  0
   28.5282   17.1998   10.6723 H   0  0  0  0  0  0  0  0  0  0  0  0
   26.3547   18.0607   11.5218 H   0  0  0  0  0  0  0  0  0  0  0  0
   26.5264   13.7524    9.0229 H   0  0  0  0  0  0  0  0  0  0  0  0
   24.1265   13.4327    9.5564 H   0  0  0  0  0  0  0  0  0  0  0  0
   22.7926   15.9181    9.0290 H   0  0  0  0  0  0  0  0  0  0  0  0
   21.9906   14.4753    9.7351 H   0  0  0  0  0  0  0  0  0  0  0  0
   21.7774   16.3997   11.2513 H   0  0  0  0  0  0  0  0  0  0  0  0
   22.8310   15.1367   11.9831 H   0  0  0  0  0  0  0  0  0  0  0  0
   23.6478   17.7775   10.6866 H   0  0  0  0  0  0  0  0  0  0  0  0
   25.7327   18.3841   12.3463 H   0  0  0  0  0  0  0  0  0  0  0  0
   24.1954   18.7351   14.8894 H   0  0  0  0  0  0  0  0  0  0  0  0
   25.8041   16.9646   15.3941 H   0  0  0  0  0  0  0  0  0  0  0  0
   27.1473   17.9745   14.7583 H   0  0  0  0  0  0  0  0  0  0  0  0
   25.3318   18.6186   17.1330 H   0  0  0  0  0  0  0  0  0  0  0  0
   27.0801   18.1527   17.1833 H   0  0  0  0  0  0  0  0  0  0  0  0
   26.2526   21.8138   15.3890 H   0  0  0  0  0  0  0  0  0  0  0  0
   28.3304   11.1147   10.8819 H   0  0  0  0  0  0  0  0  0  0  0  0
  1  2  1  0
  2  3  1  0
  3  4  2  0
  4  5  1  0
  5  6  1  0
  6  7  2  0
  6  8  2  0
  6  9  1  0
  9 10  1  0
 10 11  2  0
 11 12  1  0
 12 13  2  0
 13 14  1  0
 14 15  2  0
 14 16  1  0
 16 17  1  0
 17 18  1  0
 18 19  1  0
 19 20  1  0
 20 21  2  0
 20 22  1  0
 22 23  1  0
 23 24  1  0
 24 25  1  0
 25 26  1  0
 26 27  2  0
 26 28  1  0
 28 29  1  0
 29 30  2  0
  5 31  1  0
 31 32  2  0
 32  3  1  0
 15 10  1  0
 29 23  1  0
 19 13  1  0
  1 33  1  0
  1 34  1  0
  1 35  1  0
  2 36  1  0
  2 37  1  0
  4 38  1  0
 11 39  1  0
 12 40  1  0
 15 41  1  0
 16 42  1  0
 17 43  1  0
 17 44  1  0
 18 45  1  0
 18 46  1  0
 19 47  1  6
 22 48  1  0
 23 49  1  1
 24 50  1  0
 24 51  1  0
 25 52  1  0
 25 53  1  0
 28 54  1  0
 31 55  1  0
M  END
>  <meeko>  (603) 
{"is_sidechain": [true], "free_energy": -11.99, "intermolecular_energy": 0.0, "internal_energy": -11.99, "cluster_size": 6, "cluster_id": 1, "rank_in_cluster": 1}

>  <_RMSD_MCS_to_ref>  (603) 
0.7431001876523035

$$$$
ligand
     RDKit          3D

 56 60  0  0  0  0  0  0  0  0999 V2000
   24.8540    9.4020    7.6050 C   0  0  0  0  0  0  0  0  0  0  0  0
   25.5230   10.7550    7.4270 C   0  0  0  0  0  0  0  0  0  0  0  0
   26.9590   10.7330    7.8170 C   0  0  0  0  0  0  0  0  0  0  0  0
   27.7420   11.7630    8.2990 C   0  0  0  0  0  0  0  0  0  0  0  0
   28.9560   11.1810    8.5370 N   0  0  0  0  0  0  0  0  0  0  0  0
   30.3840   12.0100    8.8970 S   0  0  0  0  0  6  0  0  0  0  0  0
   31.3030   10.9660    9.3140 O   0  0  0  0  0  0  0  0  0  0  0  0
   30.6570   12.8210    7.7240 O   0  0  0  0  0  0  0  0  0  0  0  0
   30.0840   12.9710   10.1890 O   0  0  0  0  0  0  0  0  0  0  0  0
   29.3880   14.1320    9.9910 C   0  0  0  0  0  0  0  0  0  0  0  0
   30.0290   15.2520    9.4740 C   0  0  0  0  0  0  0  0  0  0  0  0
   29.3020   16.4220    9.2690 C   0  0  0  0  0  0  0  0  0  0  0  0
   27.9410   16.4630    9.5840 C   0  0  0  0  0  0  0  0  0  0  0  0
   27.2890   15.3450   10.1280 C   0  0  0  0  0  0  0  0  0  0  0  0
   25.8540   15.3730   10.4230 C   0  0  0  0  0  0  0  0  0  0  0  0
   24.9520   14.6480    9.6130 C   0  0  0  0  0  0  0  0  0  0  0  0
   23.5630   14.6550    9.8530 C   0  0  0  0  0  0  0  0  0  0  0  0
   23.0310   15.3860   10.9130 C   0  0  0  0  0  0  0  0  0  0  0  0
   23.9220   16.0880   11.7020 C   0  0  0  0  0  0  0  0  0  0  0  0
   25.2910   16.0880   11.4730 C   0  0  0  0  0  0  0  0  0  0  0  0
   25.8900   16.9380   12.5130 C   0  0  0  0  0  0  0  0  0  0  0  0
   27.0700   17.2130   12.6070 O   0  0  0  0  0  0  0  0  0  0  0  0
   24.8680   17.3640   13.3190 N   0  0  0  0  0  0  0  0  0  0  0  0
   25.0020   18.3450   14.3850 C   0  0  1  0  0  0  0  0  0  0  0  0
   25.7340   17.8340   15.6240 C   0  0  0  0  0  0  0  0  0  0  0  0
   25.7760   18.9380   16.6700 C   0  0  0  0  0  0  0  0  0  0  0  0
   26.4180   20.1910   16.1210 C   0  0  0  0  0  0  0  0  0  0  0  0
   27.0060   20.9950   16.8400 O   0  0  0  0  0  0  0  0  0  0  0  0
   26.2640   20.4250   14.7780 N   0  0  0  0  0  0  0  0  0  0  0  0
   25.6990   19.5940   13.8360 C   0  0  0  0  0  0  0  0  0  0  0  0
   25.7210   19.8990   12.6440 O   0  0  0  0  0  0  0  0  0  0  0  0
   23.6560   16.9280   12.8650 C   0  0  0  0  0  0  0  0  0  0  0  0
   22.5470   17.1580   13.3080 O   0  0  0  0  0  0  0  0  0  0  0  0
   28.0380   14.1780   10.3440 C   0  0  0  0  0  0  0  0  0  0  0  0
   28.9090    9.8820    8.1400 C   0  0  0  0  0  0  0  0  0  0  0  0
   27.7040    9.5740    7.7070 N   0  0  0  0  0  0  0  0  0  0  0  0
   24.7464    9.1845    8.6779 H   0  0  0  0  0  0  0  0  0  0  0  0
   23.8606    9.4192    7.1330 H   0  0  0  0  0  0  0  0  0  0  0  0
   25.4708    8.6230    7.1330 H   0  0  0  0  0  0  0  0  0  0  0  0
   25.4484   11.0497    6.3698 H   0  0  0  0  0  0  0  0  0  0  0  0
   25.0082   11.4728    8.0825 H   0  0  0  0  0  0  0  0  0  0  0  0
   27.4544   12.8131    8.4559 H   0  0  0  0  0  0  0  0  0  0  0  0
   31.1007   15.2144    9.2291 H   0  0  0  0  0  0  0  0  0  0  0  0
   29.7989   17.3137    8.8592 H   0  0  0  0  0  0  0  0  0  0  0  0
   27.3713   17.3864    9.4027 H   0  0  0  0  0  0  0  0  0  0  0  0
   25.3451   14.0606    8.7701 H   0  0  0  0  0  0  0  0  0  0  0  0
   22.8935   14.0784    9.1978 H   0  0  0  0  0  0  0  0  0  0  0  0
   21.9495   15.4035   11.1130 H   0  0  0  0  0  0  0  0  0  0  0  0
   23.9821   18.5795   14.7237 H   0  0  0  0  0  0  0  0  0  0  0  0
   25.2030   16.9610   16.0313 H   0  0  0  0  0  0  0  0  0  0  0  0
   26.7593   17.5414   15.3535 H   0  0  0  0  0  0  0  0  0  0  0  0
   24.7486   19.1710   16.9864 H   0  0  0  0  0  0  0  0  0  0  0  0
   26.3755   18.5858   17.5224 H   0  0  0  0  0  0  0  0  0  0  0  0
   26.6127   21.3306   14.4328 H   0  0  0  0  0  0  0  0  0  0  0  0
   27.5592   13.2955   10.7935 H   0  0  0  0  0  0  0  0  0  0  0  0
   29.7592    9.1849    8.1754 H   0  0  0  0  0  0  0  0  0  0  0  0
  1  2  1  0
  2  3  1  0
  3  4  2  0
  4  5  1  0
  5  6  1  0
  6  7  2  0
  6  8  2  0
  6  9  1  0
  9 10  1  0
 10 11  2  0
 11 12  1  0
 12 13  2  0
 13 14  1  0
 14 15  1  0
 15 16  2  0
 16 17  1  0
 17 18  2  0
 18 19  1  0
 19 20  2  0
 20 21  1  0
 21 22  2  0
 21 23  1  0
 23 24  1  0
 24 25  1  0
 25 26  1  0
 26 27  1  0
 27 28  2  0
 27 29  1  0
 29 30  1  0
 30 31  2  0
 23 32  1  0
 32 33  2  0
 14 34  2  0
  5 35  1  0
 35 36  2  0
 36  3  1  0
 34 10  1  0
 20 15  1  0
 30 24  1  0
 32 19  1  0
  1 37  1  0
  1 38  1  0
  1 39  1  0
  2 40  1  0
  2 41  1  0
  4 42  1  0
 11 43  1  0
 12 44  1  0
 13 45  1  0
 16 46  1  0
 17 47  1  0
 18 48  1  0
 24 49  1  1
 25 50  1  0
 25 51  1  0
 26 52  1  0
 26 53  1  0
 29 54  1  0
 34 55  1  0
 35 56  1  0
M  END
>  <meeko>  (604) 
{"is_sidechain": [true], "free_energy": -11.98, "intermolecular_energy": 0.0, "internal_energy": -11.98, "cluster_size": 15, "cluster_id": 1, "rank_in_cluster": 1}

>  <_RMSD_MCS_to_ref>  (604) 
0.8386832934228903

$$$$
ligand
     RDKit          3D

 60 65  0  0  0  0  0  0  0  0999 V2000
   24.8540    9.4020    7.6050 C   0  0  0  0  0  0  0  0  0  0  0  0
   25.5230   10.7550    7.4270 C   0  0  0  0  0  0  0  0  0  0  0  0
   27.0050   10.6450    7.3500 C   0  0  0  0  0  0  0  0  0  0  0  0
   27.8970   11.4270    6.6440 C   0  0  0  0  0  0  0  0  0  0  0  0
   29.1180   10.8740    6.9120 N   0  0  0  0  0  0  0  0  0  0  0  0
   30.6090   11.5680    6.5420 S   0  0  0  0  0  6  0  0  0  0  0  0
   30.4780   12.0490    5.1800 O   0  0  0  0  0  0  0  0  0  0  0  0
   31.6100   10.6000    6.9390 O   0  0  0  0  0  0  0  0  0  0  0  0
   30.6920   12.9550    7.6430 C   0  0  0  0  0  0  0  0  0  0  0  0
   31.9320   13.4790    8.0120 C   0  0  0  0  0  0  0  0  0  0  0  0
   32.0030   14.6210    8.8180 C   0  0  0  0  0  0  0  0  0  0  0  0
   30.7990   15.2200    9.2080 C   0  0  0  0  0  0  0  0  0  0  0  0
   30.5740   16.3480    9.9680 N   0  0  0  0  0  0  0  0  0  0  0  0
   29.2290   16.5890   10.0740 C   0  0  0  0  0  0  0  0  0  0  0  0
   28.5610   15.5960    9.3860 C   0  0  0  0  0  0  0  0  0  0  0  0
   27.1180   15.5610    9.2530 C   0  0  0  0  0  0  0  0  0  0  0  0
   26.5200   14.9960    8.1130 C   0  0  0  0  0  0  0  0  0  0  0  0
   25.1210   14.9780    7.9550 C   0  0  0  0  0  0  0  0  0  0  0  0
   24.2910   15.5280    8.9310 C   0  0  0  0  0  0  0  0  0  0  0  0
   24.8980   16.0760   10.0440 C   0  0  0  0  0  0  0  0  0  0  0  0
   26.2820   16.0940   10.2250 C   0  0  0  0  0  0  0  0  0  0  0  0
   26.6000   16.7020   11.5520 C   0  0  0  0  0  0  0  0  0  0  0  0
   25.3060   17.1860   12.0000 N   0  0  0  0  0  0  0  0  0  0  0  0
   25.1470   17.8150   13.3060 C   0  0  1  0  0  0  0  0  0  0  0  0
   25.8220   17.0470   14.4390 C   0  0  0  0  0  0  0  0  0  0  0  0
   25.5250   17.7410   15.7590 C   0  0  0  0  0  0  0  0  0  0  0  0
   25.9590   19.1880   15.7290 C   0  0  0  0  0  0  0  0  0  0  0  0
   26.1810   19.8260   16.7550 O   0  0  0  0  0  0  0  0  0  0  0  0
   26.0160   19.7920   14.4980 N   0  0  0  0  0  0  0  0  0  0  0  0
   25.6180   19.2750   13.2860 C   0  0  0  0  0  0  0  0  0  0  0  0
   25.5490   20.0000   12.2940 O   0  0  0  0  0  0  0  0  0  0  0  0
   24.2730   16.7370   11.1980 C   0  0  0  0  0  0  0  0  0  0  0  0
   23.0760   16.8530   11.3670 O   0  0  0  0  0  0  0  0  0  0  0  0
   29.5490   14.7120    8.8530 C   0  0  0  0  0  0  0  0  0  0  0  0
   29.4950   13.5290    8.0890 C   0  0  0  0  0  0  0  0  0  0  0  0
   28.9520    9.8330    7.7690 C   0  0  0  0  0  0  0  0  0  0  0  0
   27.6780    9.6700    8.0620 N   0  0  0  0  0  0  0  0  0  0  0  0
   24.7464    9.1845    8.6779 H   0  0  0  0  0  0  0  0  0  0  0  0
   23.8606    9.4192    7.1330 H   0  0  0  0  0  0  0  0  0  0  0  0
   25.4708    8.6230    7.1330 H   0  0  0  0  0  0  0  0  0  0  0  0
   25.1533   11.2132    6.4978 H   0  0  0  0  0  0  0  0  0  0  0  0
   25.2758   11.3712    8.3040 H   0  0  0  0  0  0  0  0  0  0  0  0
   27.6754   12.2978    6.0095 H   0  0  0  0  0  0  0  0  0  0  0  0
   32.8567   12.9926    7.6681 H   0  0  0  0  0  0  0  0  0  0  0  0
   32.9721   15.0341    9.1345 H   0  0  0  0  0  0  0  0  0  0  0  0
   31.3112   16.9268   10.3950 H   0  0  0  0  0  0  0  0  0  0  0  0
   28.7632   17.4271   10.6130 H   0  0  0  0  0  0  0  0  0  0  0  0
   27.1571   14.5597    7.3296 H   0  0  0  0  0  0  0  0  0  0  0  0
   24.6794   14.5264    7.0544 H   0  0  0  0  0  0  0  0  0  0  0  0
   23.1967   15.5256    8.8191 H   0  0  0  0  0  0  0  0  0  0  0  0
   27.0043   15.9504   12.2460 H   0  0  0  0  0  0  0  0  0  0  0  0
   27.3660   17.4896   11.4989 H   0  0  0  0  0  0  0  0  0  0  0  0
   24.0673   17.7935   13.5151 H   0  0  0  0  0  0  0  0  0  0  0  0
   25.4338   16.0182   14.4686 H   0  0  0  0  0  0  0  0  0  0  0  0
   26.9089   17.0203   14.2715 H   0  0  0  0  0  0  0  0  0  0  0  0
   24.4430   17.6955   15.9521 H   0  0  0  0  0  0  0  0  0  0  0  0
   26.0846   17.2274   16.5546 H   0  0  0  0  0  0  0  0  0  0  0  0
   26.4029   20.7464   14.4787 H   0  0  0  0  0  0  0  0  0  0  0  0
   28.5280   13.0639    7.8468 H   0  0  0  0  0  0  0  0  0  0  0  0
   29.7692    9.2116    8.1640 H   0  0  0  0  0  0  0  0  0  0  0  0
  1  2  1  0
  2  3  1  0
  3  4  2  0
  4  5  1  0
  5  6  1  0
  6  7  2  0
  6  8  2  0
  6  9  1  0
  9 10  2  0
 10 11  1  0
 11 12  2  0
 12 13  1  0
 13 14  1  0
 14 15  2  0
 15 16  1  0
 16 17  2  0
 17 18  1  0
 18 19  2  0
 19 20  1  0
 20 21  2  0
 21 22  1  0
 22 23  1  0
 23 24  1  0
 24 25  1  0
 25 26  1  0
 26 27  1  0
 27 28  2  0
 27 29  1  0
 29 30  1  0
 30 31  2  0
 23 32  1  0
 32 33  2  0
 15 34  1  0
 34 35  2  0
  5 36  1  0
 36 37  2  0
 37  3  1  0
 35  9  1  0
 34 12  1  0
 21 16  1  0
 30 24  1  0
 32 20  1  0
  1 38  1  0
  1 39  1  0
  1 40  1  0
  2 41  1  0
  2 42  1  0
  4 43  1  0
 10 44  1  0
 11 45  1  0
 13 46  1  0
 14 47  1  0
 17 48  1  0
 18 49  1  0
 19 50  1  0
 22 51  1  0
 22 52  1  0
 24 53  1  1
 25 54  1  0
 25 55  1  0
 26 56  1  0
 26 57  1  0
 29 58  1  0
 35 59  1  0
 36 60  1  0
M  END
>  <meeko>  (605) 
{"is_sidechain": [true], "free_energy": -11.98, "intermolecular_energy": 0.0, "internal_energy": -11.98, "cluster_size": 17, "cluster_id": 1, "rank_in_cluster": 1}

>  <_RMSD_MCS_to_ref>  (605) 
1.4908766995742246

$$$$
ligand
     RDKit          3D

 56 60  0  0  0  0  0  0  0  0999 V2000
   24.8710    9.6160    7.7820 C   0  0  0  0  0  0  0  0  0  0  0  0
   25.4240   10.9650    7.3490 C   0  0  0  0  0  0  0  0  0  0  0  0
   26.8440   10.8770    6.9130 C   0  0  0  0  0  0  0  0  0  0  0  0
   27.9850   11.2860    7.5760 C   0  0  0  0  0  0  0  0  0  0  0  0
   29.0030   10.9350    6.7360 N   0  0  0  0  0  0  0  0  0  0  0  0
   30.6140   11.4050    6.8940 S   0  0  0  0  0  6  0  0  0  0  0  0
   31.2740   10.8700    5.7190 O   0  0  0  0  0  0  0  0  0  0  0  0
   30.9920   10.9900    8.2330 O   0  0  0  0  0  0  0  0  0  0  0  0
   30.6150   13.0330    6.8150 O   0  0  0  0  0  0  0  0  0  0  0  0
   29.4600   13.7730    6.7860 C   0  0  0  0  0  0  0  0  0  0  0  0
   29.0210   14.1310    5.5160 C   0  0  0  0  0  0  0  0  0  0  0  0
   27.8690   14.8820    5.4110 C   0  0  0  0  0  0  0  0  0  0  0  0
   27.1410   15.2850    6.4730 N   0  0  0  0  0  0  0  0  0  0  0  0
   27.5640   14.9270    7.7130 C   0  0  0  0  0  0  0  0  0  0  0  0
   26.7170   15.3930    8.8330 C   0  0  0  0  0  0  0  0  0  0  0  0
   25.4050   14.8850    9.0400 C   0  0  0  0  0  0  0  0  0  0  0  0
   24.6010   15.3210   10.1000 C   0  0  0  0  0  0  0  0  0  0  0  0
   25.1260   16.2780   10.9430 C   0  0  0  0  0  0  0  0  0  0  0  0
   26.4000   16.8070   10.7720 C   0  0  0  0  0  0  0  0  0  0  0  0
   27.2000   16.3770    9.7260 C   0  0  0  0  0  0  0  0  0  0  0  0
   26.6870   17.8080   11.8410 C   0  0  0  0  0  0  0  0  0  0  0  0
   25.4260   17.8610   12.5710 N   0  0  0  0  0  0  0  0  0  0  0  0
   25.2720   18.5200   13.8620 C   0  0  2  0  0  0  0  0  0  0  0  0
   26.2570   19.6700   14.0510 C   0  0  0  0  0  0  0  0  0  0  0  0
   25.9740   20.3640   15.3750 C   0  0  0  0  0  0  0  0  0  0  0  0
   26.0220   19.3850   16.5260 C   0  0  0  0  0  0  0  0  0  0  0  0
   26.4520   19.6930   17.6320 O   0  0  0  0  0  0  0  0  0  0  0  0
   25.5380   18.1250   16.2780 N   0  0  0  0  0  0  0  0  0  0  0  0
   25.4170   17.5400   15.0390 C   0  0  0  0  0  0  0  0  0  0  0  0
   25.4360   16.3160   14.9280 O   0  0  0  0  0  0  0  0  0  0  0  0
   24.5190   16.9150   12.1160 C   0  0  0  0  0  0  0  0  0  0  0  0
   23.4270   16.6430   12.5750 O   0  0  0  0  0  0  0  0  0  0  0  0
   28.7270   14.1800    7.9000 C   0  0  0  0  0  0  0  0  0  0  0  0
   28.4810   10.4210    5.5940 C   0  0  0  0  0  0  0  0  0  0  0  0
   27.1690   10.3480    5.6780 N   0  0  0  0  0  0  0  0  0  0  0  0
   24.8497    9.5640    8.8806 H   0  0  0  0  0  0  0  0  0  0  0  0
   23.8507    9.4948    7.3893 H   0  0  0  0  0  0  0  0  0  0  0  0
   25.5127    8.8135    7.3893 H   0  0  0  0  0  0  0  0  0  0  0  0
   24.8192   11.3435    6.5117 H   0  0  0  0  0  0  0  0  0  0  0  0
   25.3780   11.6423    8.2146 H   0  0  0  0  0  0  0  0  0  0  0  0
   28.0570   11.7809    8.5558 H   0  0  0  0  0  0  0  0  0  0  0  0
   29.5779   13.8233    4.6187 H   0  0  0  0  0  0  0  0  0  0  0  0
   27.5248   15.1681    4.4062 H   0  0  0  0  0  0  0  0  0  0  0  0
   25.0103   14.1274    8.3470 H   0  0  0  0  0  0  0  0  0  0  0  0
   23.5900   14.9161   10.2545 H   0  0  0  0  0  0  0  0  0  0  0  0
   28.2067   16.7993    9.5908 H   0  0  0  0  0  0  0  0  0  0  0  0
   27.5084   17.4714   12.4906 H   0  0  0  0  0  0  0  0  0  0  0  0
   27.0095   18.7849   11.4516 H   0  0  0  0  0  0  0  0  0  0  0  0
   24.2496   18.9257   13.8581 H   0  0  0  0  0  0  0  0  0  0  0  0
   27.2843   19.2767   14.0548 H   0  0  0  0  0  0  0  0  0  0  0  0
   26.1445   20.3899   13.2269 H   0  0  0  0  0  0  0  0  0  0  0  0
   26.7289   21.1472   15.5383 H   0  0  0  0  0  0  0  0  0  0  0  0
   24.9655   20.8010   15.3309 H   0  0  0  0  0  0  0  0  0  0  0  0
   25.2390   17.5683   17.0914 H   0  0  0  0  0  0  0  0  0  0  0  0
   29.0617   13.9153    8.9138 H   0  0  0  0  0  0  0  0  0  0  0  0
   29.0714   10.1088    4.7200 H   0  0  0  0  0  0  0  0  0  0  0  0
  1  2  1  0
  2  3  1  0
  3  4  2  0
  4  5  1  0
  5  6  1  0
  6  7  2  0
  6  8  2  0
  6  9  1  0
  9 10  1  0
 10 11  2  0
 11 12  1  0
 12 13  2  0
 13 14  1  0
 14 15  1  0
 15 16  2  0
 16 17  1  0
 17 18  2  0
 18 19  1  0
 19 20  2  0
 19 21  1  0
 21 22  1  0
 22 23  1  0
 23 24  1  0
 24 25  1  0
 25 26  1  0
 26 27  2  0
 26 28  1  0
 28 29  1  0
 29 30  2  0
 22 31  1  0
 31 32  2  0
 14 33  2  0
  5 34  1  0
 34 35  2  0
 35  3  1  0
 33 10  1  0
 20 15  1  0
 29 23  1  0
 31 18  1  0
  1 36  1  0
  1 37  1  0
  1 38  1  0
  2 39  1  0
  2 40  1  0
  4 41  1  0
 11 42  1  0
 12 43  1  0
 16 44  1  0
 17 45  1  0
 20 46  1  0
 21 47  1  0
 21 48  1  0
 23 49  1  6
 24 50  1  0
 24 51  1  0
 25 52  1  0
 25 53  1  0
 28 54  1  0
 33 55  1  0
 34 56  1  0
M  END
>  <meeko>  (606) 
{"is_sidechain": [true], "free_energy": -11.98, "intermolecular_energy": 0.0, "internal_energy": -11.98, "cluster_size": 20, "cluster_id": 1, "rank_in_cluster": 1}

>  <_RMSD_MCS_to_ref>  (606) 
1.8645417667620108

$$$$
ligand
     RDKit          3D

 58 63  0  0  0  0  0  0  0  0999 V2000
   24.8710    9.6160    7.7820 C   0  0  0  0  0  0  0  0  0  0  0  0
   25.4240   10.9650    7.3490 C   0  0  0  0  0  0  0  0  0  0  0  0
   24.9690   11.3450    5.9830 C   0  0  0  0  0  0  0  0  0  0  0  0
   24.2870   12.4750    5.5770 C   0  0  0  0  0  0  0  0  0  0  0  0
   24.1270   12.3000    4.2330 N   0  0  0  0  0  0  0  0  0  0  0  0
   23.3090   13.3510    3.2000 S   0  0  0  0  0  6  0  0  0  0  0  0
   23.5390   12.7740    1.8850 O   0  0  0  0  0  0  0  0  0  0  0  0
   21.9590   13.4650    3.7220 O   0  0  0  0  0  0  0  0  0  0  0  0
   24.0370   14.7970    3.2270 O   0  0  0  0  0  0  0  0  0  0  0  0
   25.0830   14.9970    4.0850 C   0  0  0  0  0  0  0  0  0  0  0  0
   24.7160   15.1590    5.3700 N   0  0  0  0  0  0  0  0  0  0  0  0
   25.6660   15.4360    6.2980 C   0  0  0  0  0  0  0  0  0  0  0  0
   25.2450   15.6010    7.6890 C   0  0  0  0  0  0  0  0  0  0  0  0
   24.1810   14.8370    8.2350 C   0  0  0  0  0  0  0  0  0  0  0  0
   23.7690   14.9970    9.5620 C   0  0  0  0  0  0  0  0  0  0  0  0
   24.4470   15.9200   10.3300 C   0  0  0  0  0  0  0  0  0  0  0  0
   25.5040   16.6770    9.8350 C   0  0  0  0  0  0  0  0  0  0  0  0
   25.9140   16.5250    8.5200 C   0  0  0  0  0  0  0  0  0  0  0  0
   26.0180   17.5900   10.8960 C   0  0  0  0  0  0  0  0  0  0  0  0
   25.2290   17.2050   12.0590 N   0  0  0  0  0  0  0  0  0  0  0  0
   25.2420   18.0050   13.2790 C   0  0  2  0  0  0  0  0  0  0  0  0
   26.0430   19.3000   13.1590 C   0  0  0  0  0  0  0  0  0  0  0  0
   25.9390   20.0800   14.4600 C   0  0  0  0  0  0  0  0  0  0  0  0
   26.4080   19.2520   15.6340 C   0  0  0  0  0  0  0  0  0  0  0  0
   26.8130   19.7620   16.6750 O   0  0  0  0  0  0  0  0  0  0  0  0
   26.2820   17.8910   15.5180 N   0  0  0  0  0  0  0  0  0  0  0  0
   25.7320   17.1770   14.4780 C   0  0  0  0  0  0  0  0  0  0  0  0
   25.5640   15.9620   14.5780 O   0  0  0  0  0  0  0  0  0  0  0  0
   24.2340   16.2950   11.7320 C   0  0  0  0  0  0  0  0  0  0  0  0
   23.3300   15.8770   12.4260 O   0  0  0  0  0  0  0  0  0  0  0  0
   26.9730   15.5230    5.8520 C   0  0  0  0  0  0  0  0  0  0  0  0
   28.1800   15.7250    6.4590 N   0  0  0  0  0  0  0  0  0  0  0  0
   29.2210   15.7560    5.6040 N   0  0  0  0  0  0  0  0  0  0  0  0
   28.6540   15.5280    4.4130 C   0  0  0  0  0  0  0  0  0  0  0  0
   27.2590   15.3620    4.5100 C   0  0  0  0  0  0  0  0  0  0  0  0
   26.3160   15.1090    3.5820 N   0  0  0  0  0  0  0  0  0  0  0  0
   24.6950   11.1250    3.8610 C   0  0  0  0  0  0  0  0  0  0  0  0
   25.2130   10.5140    4.9070 N   0  0  0  0  0  0  0  0  0  0  0  0
   24.8497    9.5640    8.8806 H   0  0  0  0  0  0  0  0  0  0  0  0
   23.8507    9.4948    7.3893 H   0  0  0  0  0  0  0  0  0  0  0  0
   25.5127    8.8135    7.3893 H   0  0  0  0  0  0  0  0  0  0  0  0
   25.0862   11.7320    8.0615 H   0  0  0  0  0  0  0  0  0  0  0  0
   26.5214   10.8914    7.3321 H   0  0  0  0  0  0  0  0  0  0  0  0
   23.9504   13.3209    6.1943 H   0  0  0  0  0  0  0  0  0  0  0  0
   23.6677   14.1009    7.5989 H   0  0  0  0  0  0  0  0  0  0  0  0
   22.9367   14.4095    9.9768 H   0  0  0  0  0  0  0  0  0  0  0  0
   26.7528   17.1188    8.1277 H   0  0  0  0  0  0  0  0  0  0  0  0
   27.0914   17.4276   11.0733 H   0  0  0  0  0  0  0  0  0  0  0  0
   25.9248   18.6553   10.6382 H   0  0  0  0  0  0  0  0  0  0  0  0
   24.1971   18.3045   13.4479 H   0  0  0  0  0  0  0  0  0  0  0  0
   27.0978   19.0618   12.9571 H   0  0  0  0  0  0  0  0  0  0  0  0
   25.6406   19.9060   12.3339 H   0  0  0  0  0  0  0  0  0  0  0  0
   26.5618   20.9838   14.3870 H   0  0  0  0  0  0  0  0  0  0  0  0
   24.8843   20.3471   14.6220 H   0  0  0  0  0  0  0  0  0  0  0  0
   26.6435   17.3351   16.3062 H   0  0  0  0  0  0  0  0  0  0  0  0
   28.2847   15.8428    7.4769 H   0  0  0  0  0  0  0  0  0  0  0  0
   29.2134   15.4763    3.4673 H   0  0  0  0  0  0  0  0  0  0  0  0
   24.7195   10.7375    2.8318 H   0  0  0  0  0  0  0  0  0  0  0  0
  1  2  1  0
  2  3  1  0
  3  4  2  0
  4  5  1  0
  5  6  1  0
  6  7  2  0
  6  8  2  0
  6  9  1  0
  9 10  1  0
 10 11  2  0
 11 12  1  0
 12 13  1  0
 13 14  2  0
 14 15  1  0
 15 16  2  0
 16 17  1  0
 17 18  2  0
 17 19  1  0
 19 20  1  0
 20 21  1  0
 21 22  1  0
 22 23  1  0
 23 24  1  0
 24 25  2  0
 24 26  1  0
 26 27  1  0
 27 28  2  0
 20 29  1  0
 29 30  2  0
 12 31  2  0
 31 32  1  0
 32 33  1  0
 33 34  2  0
 34 35  1  0
 35 36  2  0
  5 37  1  0
 37 38  2  0
 38  3  1  0
 36 10  1  0
 18 13  1  0
 27 21  1  0
 35 31  1  0
 29 16  1  0
  1 39  1  0
  1 40  1  0
  1 41  1  0
  2 42  1  0
  2 43  1  0
  4 44  1  0
 14 45  1  0
 15 46  1  0
 18 47  1  0
 19 48  1  0
 19 49  1  0
 21 50  1  1
 22 51  1  0
 22 52  1  0
 23 53  1  0
 23 54  1  0
 26 55  1  0
 32 56  1  0
 34 57  1  0
 37 58  1  0
M  END
>  <meeko>  (607) 
{"is_sidechain": [true], "free_energy": -11.98, "intermolecular_energy": 0.0, "internal_energy": -11.98, "cluster_size": 12, "cluster_id": 1, "rank_in_cluster": 1}

>  <_RMSD_MCS_to_ref>  (607) 
1.9661971176011726

$$$$
ligand
     RDKit          3D

 63 68  0  0  0  0  0  0  0  0999 V2000
   24.8710    9.6160    7.7820 C   0  0  0  0  0  0  0  0  0  0  0  0
   25.4240   10.9650    7.3490 C   0  0  0  0  0  0  0  0  0  0  0  0
   26.8570   10.8820    6.9550 C   0  0  0  0  0  0  0  0  0  0  0  0
   27.4900   11.4480    5.8660 C   0  0  0  0  0  0  0  0  0  0  0  0
   28.7900   11.0480    5.9890 N   0  0  0  0  0  0  0  0  0  0  0  0
   29.9980   11.2340    4.8350 S   0  0  0  0  0  6  0  0  0  0  0  0
   31.2550   11.0110    5.5210 O   0  0  0  0  0  0  0  0  0  0  0  0
   29.5700   10.4250    3.7090 O   0  0  0  0  0  0  0  0  0  0  0  0
   29.9110   12.9420    4.3750 C   0  0  0  0  0  0  0  0  0  0  0  0
   30.7620   13.4360    3.3840 C   0  0  0  0  0  0  0  0  0  0  0  0
   30.6810   14.7790    3.0180 C   0  0  0  0  0  0  0  0  0  0  0  0
   29.7540   15.6270    3.6350 C   0  0  0  0  0  0  0  0  0  0  0  0
   28.9040   15.1320    4.6340 C   0  0  0  0  0  0  0  0  0  0  0  0
   27.9450   15.9670    5.2730 N   0  0  0  0  0  0  0  0  0  0  0  0
   27.2550   17.0320    4.7450 C   0  0  0  0  0  0  0  0  0  0  0  0
   26.4310   17.5030    5.7380 C   0  0  0  0  0  0  0  0  0  0  0  0
   26.6710   16.6720    6.8610 C   0  0  0  0  0  0  0  0  0  0  0  0
   26.0480   16.7290    8.1910 C   0  0  0  0  0  0  0  0  0  0  0  0
   24.7850   16.1230    8.4050 C   0  0  0  0  0  0  0  0  0  0  0  0
   24.1560   16.1640    9.6540 C   0  0  0  0  0  0  0  0  0  0  0  0
   24.8190   16.8140   10.6740 C   0  0  0  0  0  0  0  0  0  0  0  0
   26.0610   17.4170   10.4970 C   0  0  0  0  0  0  0  0  0  0  0  0
   26.6890   17.3860    9.2600 C   0  0  0  0  0  0  0  0  0  0  0  0
   26.5030   18.0510   11.7730 C   0  0  0  0  0  0  0  0  0  0  0  0
   25.4570   17.6560   12.7070 N   0  0  0  0  0  0  0  0  0  0  0  0
   25.3720   18.2420   14.0400 C   0  0  2  0  0  0  0  0  0  0  0  0
   26.1660   19.5370   14.1980 C   0  0  0  0  0  0  0  0  0  0  0  0
   25.9560   20.0900   15.6000 C   0  0  0  0  0  0  0  0  0  0  0  0
   26.3440   19.0770   16.6520 C   0  0  0  0  0  0  0  0  0  0  0  0
   26.6500   19.4060   17.7940 O   0  0  0  0  0  0  0  0  0  0  0  0
   26.2570   17.7540   16.2970 N   0  0  0  0  0  0  0  0  0  0  0  0
   25.7770   17.2260   15.1200 C   0  0  0  0  0  0  0  0  0  0  0  0
   25.5920   16.0140   15.0140 O   0  0  0  0  0  0  0  0  0  0  0  0
   24.4060   17.0160   12.0660 C   0  0  0  0  0  0  0  0  0  0  0  0
   23.3300   16.6850   12.5230 O   0  0  0  0  0  0  0  0  0  0  0  0
   27.5950   15.7470    6.5630 N   0  0  0  0  0  0  0  0  0  0  0  0
   28.9930   13.7830    5.0110 C   0  0  0  0  0  0  0  0  0  0  0  0
   28.9120   10.2610    7.0900 C   0  0  0  0  0  0  0  0  0  0  0  0
   27.7540   10.1470    7.7060 N   0  0  0  0  0  0  0  0  0  0  0  0
   24.8497    9.5640    8.8806 H   0  0  0  0  0  0  0  0  0  0  0  0
   23.8507    9.4948    7.3893 H   0  0  0  0  0  0  0  0  0  0  0  0
   25.5127    8.8135    7.3893 H   0  0  0  0  0  0  0  0  0  0  0  0
   24.8405   11.3285    6.4903 H   0  0  0  0  0  0  0  0  0  0  0  0
   25.3469   11.6530    8.2038 H   0  0  0  0  0  0  0  0  0  0  0  0
   27.0482   12.0772    5.0793 H   0  0  0  0  0  0  0  0  0  0  0  0
   31.4901   12.7712    2.8963 H   0  0  0  0  0  0  0  0  0  0  0  0
   31.3499   15.1746    2.2394 H   0  0  0  0  0  0  0  0  0  0  0  0
   29.6923   16.6837    3.3355 H   0  0  0  0  0  0  0  0  0  0  0  0
   27.3453   17.4305    3.7237 H   0  0  0  0  0  0  0  0  0  0  0  0
   25.7307   18.3489    5.6749 H   0  0  0  0  0  0  0  0  0  0  0  0
   24.2876   15.6084    7.5697 H   0  0  0  0  0  0  0  0  0  0  0  0
   23.1732   15.6971    9.8159 H   0  0  0  0  0  0  0  0  0  0  0  0
   27.6687   17.8653    9.1167 H   0  0  0  0  0  0  0  0  0  0  0  0
   27.4833   17.6647   12.0890 H   0  0  0  0  0  0  0  0  0  0  0  0
   26.6311   19.1409   11.6970 H   0  0  0  0  0  0  0  0  0  0  0  0
   24.3143   18.5119   14.1755 H   0  0  0  0  0  0  0  0  0  0  0  0
   27.2354   19.3335   14.0400 H   0  0  0  0  0  0  0  0  0  0  0  0
   25.8206   20.2729   13.4569 H   0  0  0  0  0  0  0  0  0  0  0  0
   26.5730   20.9919   15.7259 H   0  0  0  0  0  0  0  0  0  0  0  0
   24.8893   20.3287   15.7236 H   0  0  0  0  0  0  0  0  0  0  0  0
   26.5911   17.0746   16.9954 H   0  0  0  0  0  0  0  0  0  0  0  0
   28.3420   13.3884    5.8050 H   0  0  0  0  0  0  0  0  0  0  0  0
   29.8474    9.7857    7.4204 H   0  0  0  0  0  0  0  0  0  0  0  0
  1  2  1  0
  2  3  1  0
  3  4  2  0
  4  5  1  0
  5  6  1  0
  6  7  2  0
  6  8  2  0
  6  9  1  0
  9 10  2  0
 10 11  1  0
 11 12  2  0
 12 13  1  0
 13 14  1  0
 14 15  1  0
 15 16  2  0
 16 17  1  0
 17 18  1  0
 18 19  2  0
 19 20  1  0
 20 21  2  0
 21 22  1  0
 22 23  2  0
 22 24  1  0
 24 25  1  0
 25 26  1  0
 26 27  1  0
 27 28  1  0
 28 29  1  0
 29 30  2  0
 29 31  1  0
 31 32  1  0
 32 33  2  0
 25 34  1  0
 34 35  2  0
 17 36  2  0
 13 37  2  0
  5 38  1  0
 38 39  2  0
 39  3  1  0
 37  9  1  0
 36 14  1  0
 23 18  1  0
 32 26  1  0
 34 21  1  0
  1 40  1  0
  1 41  1  0
  1 42  1  0
  2 43  1  0
  2 44  1  0
  4 45  1  0
 10 46  1  0
 11 47  1  0
 12 48  1  0
 15 49  1  0
 16 50  1  0
 19 51  1  0
 20 52  1  0
 23 53  1  0
 24 54  1  0
 24 55  1  0
 26 56  1  1
 27 57  1  0
 27 58  1  0
 28 59  1  0
 28 60  1  0
 31 61  1  0
 37 62  1  0
 38 63  1  0
M  END
>  <meeko>  (608) 
{"is_sidechain": [true], "free_energy": -11.98, "intermolecular_energy": 0.0, "internal_energy": -11.98, "cluster_size": 20, "cluster_id": 1, "rank_in_cluster": 1}

>  <_RMSD_MCS_to_ref>  (608) 
1.9111118973546595

$$$$
ligand
     RDKit          3D

 49 52  0  0  0  0  0  0  0  0999 V2000
   24.8710    9.6160    7.7820 C   0  0  0  0  0  0  0  0  0  0  0  0
   25.4240   10.9650    7.3490 C   0  0  0  0  0  0  0  0  0  0  0  0
   26.4660   11.4710    8.2820 C   0  0  0  0  0  0  0  0  0  0  0  0
   27.2930   12.5690    8.1480 C   0  0  0  0  0  0  0  0  0  0  0  0
   28.0280   12.5770    9.3000 N   0  0  0  0  0  0  0  0  0  0  0  0
   29.2560   13.6730    9.6720 S   0  0  0  0  0  6  0  0  0  0  0  0
   30.0400   13.8210    8.4590 O   0  0  0  0  0  0  0  0  0  0  0  0
   29.8590   13.1160   10.8710 O   0  0  0  0  0  0  0  0  0  0  0  0
   28.5890   15.1010   10.0820 O   0  0  0  0  0  0  0  0  0  0  0  0
   27.2600   15.2610   10.1210 C   0  0  0  0  0  0  0  0  0  0  0  0
   26.6170   15.7430   11.2340 C   0  0  0  0  0  0  0  0  0  0  0  0
   25.2780   15.7610   10.9160 N   0  0  0  0  0  0  0  0  0  0  0  0
   24.1580   16.1470   11.6680 C   0  0  0  0  0  0  0  0  0  0  0  0
   24.2750   16.7080   13.0420 C   0  0  0  0  0  0  0  0  0  0  0  0
   23.5940   16.2890   13.9700 O   0  0  0  0  0  0  0  0  0  0  0  0
   25.1550   17.7540   13.1740 N   0  0  0  0  0  0  0  0  0  0  0  0
   25.2520   18.5140   14.4130 C   0  0  1  0  0  0  0  0  0  0  0  0
   26.1370   17.8260   15.4470 C   0  0  0  0  0  0  0  0  0  0  0  0
   26.2280   18.6940   16.6930 C   0  0  0  0  0  0  0  0  0  0  0  0
   26.7230   20.0810   16.3610 C   0  0  0  0  0  0  0  0  0  0  0  0
   27.4350   20.7280   17.1230 O   0  0  0  0  0  0  0  0  0  0  0  0
   26.3170   20.6070   15.1610 N   0  0  0  0  0  0  0  0  0  0  0  0
   25.8410   19.8900   14.0910 C   0  0  0  0  0  0  0  0  0  0  0  0
   25.8830   20.3420   12.9480 O   0  0  0  0  0  0  0  0  0  0  0  0
   22.9390   16.0600   11.0900 C   0  0  0  0  0  0  0  0  0  0  0  0
   22.8180   15.5410    9.7370 C   0  0  0  0  0  0  0  0  0  0  0  0
   23.9000   15.1620    9.0320 C   0  0  0  0  0  0  0  0  0  0  0  0
   25.1920   15.2650    9.6140 C   0  0  0  0  0  0  0  0  0  0  0  0
   26.3780   14.9590    9.1290 N   0  0  0  0  0  0  0  0  0  0  0  0
   27.6800   11.5060   10.0590 C   0  0  0  0  0  0  0  0  0  0  0  0
   26.7160   10.8210    9.4750 N   0  0  0  0  0  0  0  0  0  0  0  0
   24.8497    9.5640    8.8806 H   0  0  0  0  0  0  0  0  0  0  0  0
   23.8507    9.4948    7.3893 H   0  0  0  0  0  0  0  0  0  0  0  0
   25.5127    8.8135    7.3893 H   0  0  0  0  0  0  0  0  0  0  0  0
   25.8658   10.8616    6.3470 H   0  0  0  0  0  0  0  0  0  0  0  0
   24.5931   11.6858    7.3478 H   0  0  0  0  0  0  0  0  0  0  0  0
   27.3475   13.2754    7.3066 H   0  0  0  0  0  0  0  0  0  0  0  0
   27.0772   16.0514   12.1843 H   0  0  0  0  0  0  0  0  0  0  0  0
   25.7598   18.0067   12.3795 H   0  0  0  0  0  0  0  0  0  0  0  0
   24.2429   18.5972   14.8430 H   0  0  0  0  0  0  0  0  0  0  0  0
   25.7028   16.8503   15.7105 H   0  0  0  0  0  0  0  0  0  0  0  0
   27.1434   17.6779   15.0285 H   0  0  0  0  0  0  0  0  0  0  0  0
   25.2305   18.7696   17.1505 H   0  0  0  0  0  0  0  0  0  0  0  0
   26.9414   18.2283   17.3889 H   0  0  0  0  0  0  0  0  0  0  0  0
   26.3742   21.6297   15.0530 H   0  0  0  0  0  0  0  0  0  0  0  0
   22.0424   16.3805   11.6409 H   0  0  0  0  0  0  0  0  0  0  0  0
   21.8210   15.4564    9.2800 H   0  0  0  0  0  0  0  0  0  0  0  0
   23.7845   14.7740    8.0092 H   0  0  0  0  0  0  0  0  0  0  0  0
   28.1377   11.2463   11.0250 H   0  0  0  0  0  0  0  0  0  0  0  0
  1  2  1  0
  2  3  1  0
  3  4  2  0
  4  5  1  0
  5  6  1  0
  6  7  2  0
  6  8  2  0
  6  9  1  0
  9 10  1  0
 10 11  2  0
 11 12  1  0
 12 13  1  0
 13 14  1  0
 14 15  2  0
 14 16  1  0
 16 17  1  0
 17 18  1  0
 18 19  1  0
 19 20  1  0
 20 21  2  0
 20 22  1  0
 22 23  1  0
 23 24  2  0
 13 25  2  0
 25 26  1  0
 26 27  2  0
 27 28  1  0
 28 29  2  0
  5 30  1  0
 30 31  2  0
 31  3  1  0
 29 10  1  0
 28 12  1  0
 23 17  1  0
  1 32  1  0
  1 33  1  0
  1 34  1  0
  2 35  1  0
  2 36  1  0
  4 37  1  0
 11 38  1  0
 16 39  1  0
 17 40  1  1
 18 41  1  0
 18 42  1  0
 19 43  1  0
 19 44  1  0
 22 45  1  0
 25 46  1  0
 26 47  1  0
 27 48  1  0
 30 49  1  0
M  END
>  <meeko>  (609) 
{"is_sidechain": [true], "free_energy": -11.98, "intermolecular_energy": 0.0, "internal_energy": -11.98, "cluster_size": 16, "cluster_id": 1, "rank_in_cluster": 1}

>  <_RMSD_MCS_to_ref>  (609) 
0.7218096855974032

$$$$
ligand
     RDKit          3D

 56 60  0  0  0  0  0  0  0  0999 V2000
   24.8540    9.4010    7.6050 C   0  0  0  0  0  0  0  0  0  0  0  0
   25.5230   10.7560    7.4270 C   0  0  0  0  0  0  0  0  0  0  0  0
   25.1340   11.4060    6.1470 C   0  0  0  0  0  0  0  0  0  0  0  0
   24.1440   12.3420    5.9130 C   0  0  0  0  0  0  0  0  0  0  0  0
   24.1680   12.5160    4.5590 N   0  0  0  0  0  0  0  0  0  0  0  0
   23.2370   13.6130    3.6810 S   0  0  0  0  0  6  0  0  0  0  0  0
   21.8720   13.4320    4.1450 O   0  0  0  0  0  0  0  0  0  0  0  0
   23.5840   13.3180    2.3010 O   0  0  0  0  0  0  0  0  0  0  0  0
   23.7180   15.1370    3.9870 O   0  0  0  0  0  0  0  0  0  0  0  0
   24.7870   15.3630    4.8160 C   0  0  0  0  0  0  0  0  0  0  0  0
   26.0510   15.1600    4.2940 C   0  0  0  0  0  0  0  0  0  0  0  0
   27.1400   15.3050    5.1440 C   0  0  0  0  0  0  0  0  0  0  0  0
   26.9240   15.6220    6.4830 C   0  0  0  0  0  0  0  0  0  0  0  0
   25.6180   15.7950    6.9350 C   0  0  0  0  0  0  0  0  0  0  0  0
   25.2810   16.0770    8.3420 C   0  0  0  0  0  0  0  0  0  0  0  0
   24.1370   15.4840    8.9380 C   0  0  0  0  0  0  0  0  0  0  0  0
   23.8050   15.6790   10.2870 C   0  0  0  0  0  0  0  0  0  0  0  0
   24.6310   16.4820   11.0460 C   0  0  0  0  0  0  0  0  0  0  0  0
   25.7490   17.0750   10.4670 C   0  0  0  0  0  0  0  0  0  0  0  0
   26.0990   16.8940    9.1410 C   0  0  0  0  0  0  0  0  0  0  0  0
   26.4510   17.8330   11.5060 C   0  0  0  0  0  0  0  0  0  0  0  0
   27.5090   18.4130   11.3530 O   0  0  0  0  0  0  0  0  0  0  0  0
   25.7010   17.7170   12.6650 N   0  0  0  0  0  0  0  0  0  0  0  0
   26.1910   18.1700   13.9630 C   0  0  2  0  0  0  0  0  0  0  0  0
   25.7400   17.2220   15.0750 C   0  0  0  0  0  0  0  0  0  0  0  0
   26.3680   17.6410   16.3940 C   0  0  0  0  0  0  0  0  0  0  0  0
   26.0390   19.0770   16.7250 C   0  0  0  0  0  0  0  0  0  0  0  0
   25.9210   19.4760   17.8790 O   0  0  0  0  0  0  0  0  0  0  0  0
   25.9110   19.9360   15.6640 N   0  0  0  0  0  0  0  0  0  0  0  0
   25.8050   19.6120   14.3300 C   0  0  0  0  0  0  0  0  0  0  0  0
   25.4550   20.4650   13.5180 O   0  0  0  0  0  0  0  0  0  0  0  0
   24.5460   16.8410   12.4920 C   0  0  0  0  0  0  0  0  0  0  0  0
   24.5530   15.6770    6.1010 N   0  0  0  0  0  0  0  0  0  0  0  0
   25.2070   11.8140    4.0370 C   0  0  0  0  0  0  0  0  0  0  0  0
   25.7980   11.1000    4.9740 N   0  0  0  0  0  0  0  0  0  0  0  0
   24.7465    9.1833    8.6779 H   0  0  0  0  0  0  0  0  0  0  0  0
   23.8606    9.4177    7.1329 H   0  0  0  0  0  0  0  0  0  0  0  0
   25.4713    8.6225    7.1329 H   0  0  0  0  0  0  0  0  0  0  0  0
   25.2284   11.4098    8.2611 H   0  0  0  0  0  0  0  0  0  0  0  0
   26.6114   10.5978    7.4105 H   0  0  0  0  0  0  0  0  0  0  0  0
   23.4887   12.8329    6.6475 H   0  0  0  0  0  0  0  0  0  0  0  0
   26.1902   14.8915    3.2364 H   0  0  0  0  0  0  0  0  0  0  0  0
   28.1632   15.1708    4.7633 H   0  0  0  0  0  0  0  0  0  0  0  0
   27.7728   15.7341    7.1736 H   0  0  0  0  0  0  0  0  0  0  0  0
   23.4869   14.8481    8.3191 H   0  0  0  0  0  0  0  0  0  0  0  0
   22.9139   15.2064   10.7258 H   0  0  0  0  0  0  0  0  0  0  0  0
   26.9944   17.3771    8.7228 H   0  0  0  0  0  0  0  0  0  0  0  0
   27.2868   18.1603   13.8679 H   0  0  0  0  0  0  0  0  0  0  0  0
   24.6442   17.2586   15.1642 H   0  0  0  0  0  0  0  0  0  0  0  0
   26.0576   16.1977   14.8304 H   0  0  0  0  0  0  0  0  0  0  0  0
   25.9858   16.9917   17.1954 H   0  0  0  0  0  0  0  0  0  0  0  0
   27.4603   17.5461   16.3048 H   0  0  0  0  0  0  0  0  0  0  0  0
   25.8919   20.9404   15.8913 H   0  0  0  0  0  0  0  0  0  0  0  0
   24.6248   15.9478   13.1292 H   0  0  0  0  0  0  0  0  0  0  0  0
   23.5918   17.3105   12.7733 H   0  0  0  0  0  0  0  0  0  0  0  0
   25.5123   11.8380    2.9805 H   0  0  0  0  0  0  0  0  0  0  0  0
  1  2  1  0
  2  3  1  0
  3  4  2  0
  4  5  1  0
  5  6  1  0
  6  7  2  0
  6  8  2  0
  6  9  1  0
  9 10  1  0
 10 11  2  0
 11 12  1  0
 12 13  2  0
 13 14  1  0
 14 15  1  0
 15 16  2  0
 16 17  1  0
 17 18  2  0
 18 19  1  0
 19 20  2  0
 19 21  1  0
 21 22  2  0
 21 23  1  0
 23 24  1  0
 24 25  1  0
 25 26  1  0
 26 27  1  0
 27 28  2  0
 27 29  1  0
 29 30  1  0
 30 31  2  0
 23 32  1  0
 14 33  2  0
  5 34  1  0
 34 35  2  0
 35  3  1  0
 33 10  1  0
 20 15  1  0
 30 24  1  0
 32 18  1  0
  1 36  1  0
  1 37  1  0
  1 38  1  0
  2 39  1  0
  2 40  1  0
  4 41  1  0
 11 42  1  0
 12 43  1  0
 13 44  1  0
 16 45  1  0
 17 46  1  0
 20 47  1  0
 24 48  1  6
 25 49  1  0
 25 50  1  0
 26 51  1  0
 26 52  1  0
 29 53  1  0
 32 54  1  0
 32 55  1  0
 34 56  1  0
M  END
>  <meeko>  (610) 
{"is_sidechain": [true], "free_energy": -11.97, "intermolecular_energy": 0.0, "internal_energy": -11.97, "cluster_size": 7, "cluster_id": 1, "rank_in_cluster": 1}

>  <_RMSD_MCS_to_ref>  (610) 
1.1665319446023654

$$$$
ligand
     RDKit          3D

 56 60  0  0  0  0  0  0  0  0999 V2000
   24.8540    9.4020    7.6050 C   0  0  0  0  0  0  0  0  0  0  0  0
   25.5230   10.7550    7.4270 C   0  0  0  0  0  0  0  0  0  0  0  0
   27.0040   10.6700    7.5370 C   0  0  0  0  0  0  0  0  0  0  0  0
   27.9310   11.6930    7.5010 C   0  0  0  0  0  0  0  0  0  0  0  0
   29.1330   11.0610    7.6310 N   0  0  0  0  0  0  0  0  0  0  0  0
   30.6440   11.7910    7.7460 S   0  0  0  0  0  6  0  0  0  0  0  0
   31.4090   10.9230    8.6210 O   0  0  0  0  0  0  0  0  0  0  0  0
   31.0630   12.0890    6.3900 O   0  0  0  0  0  0  0  0  0  0  0  0
   30.3460   13.3180    8.5870 C   0  0  0  0  0  0  0  0  0  0  0  0
   31.0930   13.6470    9.7220 C   0  0  0  0  0  0  0  0  0  0  0  0
   30.8080   14.8220   10.4170 C   0  0  0  0  0  0  0  0  0  0  0  0
   29.7660   15.6500    9.9930 C   0  0  0  0  0  0  0  0  0  0  0  0
   29.0200   15.3060    8.8620 C   0  0  0  0  0  0  0  0  0  0  0  0
   27.9570   16.0670    8.4250 O   0  0  0  0  0  0  0  0  0  0  0  0
   26.7190   15.5890    8.7730 C   0  0  0  0  0  0  0  0  0  0  0  0
   26.1360   14.6140    7.9520 C   0  0  0  0  0  0  0  0  0  0  0  0
   24.8550   14.1020    8.2380 C   0  0  0  0  0  0  0  0  0  0  0  0
   24.1410   14.5520    9.3520 C   0  0  0  0  0  0  0  0  0  0  0  0
   24.7530   15.4930   10.1610 C   0  0  0  0  0  0  0  0  0  0  0  0
   26.0200   15.9870    9.8980 C   0  0  0  0  0  0  0  0  0  0  0  0
   26.3520   16.8950   10.9980 C   0  0  0  0  0  0  0  0  0  0  0  0
   27.4360   17.4150   11.1800 O   0  0  0  0  0  0  0  0  0  0  0  0
   25.2330   17.0070   11.7790 N   0  0  0  0  0  0  0  0  0  0  0  0
   25.2290   17.7630   13.0230 C   0  0  1  0  0  0  0  0  0  0  0  0
   25.9250   17.0650   14.1870 C   0  0  0  0  0  0  0  0  0  0  0  0
   25.7870   17.9300   15.4330 C   0  0  0  0  0  0  0  0  0  0  0  0
   26.3430   19.3150   15.2020 C   0  0  0  0  0  0  0  0  0  0  0  0
   26.8070   19.9970   16.1110 O   0  0  0  0  0  0  0  0  0  0  0  0
   26.2630   19.8070   13.9220 N   0  0  0  0  0  0  0  0  0  0  0  0
   25.8470   19.1440   12.7890 C   0  0  0  0  0  0  0  0  0  0  0  0
   25.9280   19.6830   11.6870 O   0  0  0  0  0  0  0  0  0  0  0  0
   24.2610   16.1350   11.3790 C   0  0  0  0  0  0  0  0  0  0  0  0
   23.1910   15.8840   11.8970 O   0  0  0  0  0  0  0  0  0  0  0  0
   29.3430   14.1700    8.1220 C   0  0  0  0  0  0  0  0  0  0  0  0
   28.9210    9.7250    7.7680 C   0  0  0  0  0  0  0  0  0  0  0  0
   27.6330    9.4490    7.7160 N   0  0  0  0  0  0  0  0  0  0  0  0
   24.7464    9.1845    8.6779 H   0  0  0  0  0  0  0  0  0  0  0  0
   23.8606    9.4192    7.1330 H   0  0  0  0  0  0  0  0  0  0  0  0
   25.4708    8.6230    7.1330 H   0  0  0  0  0  0  0  0  0  0  0  0
   25.2639   11.1500    6.4336 H   0  0  0  0  0  0  0  0  0  0  0  0
   25.1630   11.4170    8.2283 H   0  0  0  0  0  0  0  0  0  0  0  0
   27.7431   12.7714    7.3923 H   0  0  0  0  0  0  0  0  0  0  0  0
   31.9005   12.9833   10.0647 H   0  0  0  0  0  0  0  0  0  0  0  0
   31.4041   15.0969   11.2996 H   0  0  0  0  0  0  0  0  0  0  0  0
   29.5330   16.5708   10.5479 H   0  0  0  0  0  0  0  0  0  0  0  0
   26.6853   14.2441    7.0737 H   0  0  0  0  0  0  0  0  0  0  0  0
   24.4127   13.3410    7.5783 H   0  0  0  0  0  0  0  0  0  0  0  0
   23.1330   14.1733    9.5766 H   0  0  0  0  0  0  0  0  0  0  0  0
   24.1743   17.8546   13.3216 H   0  0  0  0  0  0  0  0  0  0  0  0
   25.4569   16.0854   14.3636 H   0  0  0  0  0  0  0  0  0  0  0  0
   26.9892   16.9173   13.9512 H   0  0  0  0  0  0  0  0  0  0  0  0
   24.7223   18.0105   15.6975 H   0  0  0  0  0  0  0  0  0  0  0  0
   26.3552   17.4586   16.2484 H   0  0  0  0  0  0  0  0  0  0  0  0
   26.5481   20.7885   13.7945 H   0  0  0  0  0  0  0  0  0  0  0  0
   28.8142   13.9477    7.1834 H   0  0  0  0  0  0  0  0  0  0  0  0
   29.7157    8.9766    7.9037 H   0  0  0  0  0  0  0  0  0  0  0  0
  1  2  1  0
  2  3  1  0
  3  4  2  0
  4  5  1  0
  5  6  1  0
  6  7  2  0
  6  8  2  0
  6  9  1  0
  9 10  2  0
 10 11  1  0
 11 12  2  0
 12 13  1  0
 13 14  1  0
 14 15  1  0
 15 16  2  0
 16 17  1  0
 17 18  2  0
 18 19  1  0
 19 20  2  0
 20 21  1  0
 21 22  2  0
 21 23  1  0
 23 24  1  0
 24 25  1  0
 25 26  1  0
 26 27  1  0
 27 28  2  0
 27 29  1  0
 29 30  1  0
 30 31  2  0
 23 32  1  0
 32 33  2  0
 13 34  2  0
  5 35  1  0
 35 36  2  0
 36  3  1  0
 34  9  1  0
 20 15  1  0
 30 24  1  0
 32 19  1  0
  1 37  1  0
  1 38  1  0
  1 39  1  0
  2 40  1  0
  2 41  1  0
  4 42  1  0
 10 43  1  0
 11 44  1  0
 12 45  1  0
 16 46  1  0
 17 47  1  0
 18 48  1  0
 24 49  1  1
 25 50  1  0
 25 51  1  0
 26 52  1  0
 26 53  1  0
 29 54  1  0
 34 55  1  0
 35 56  1  0
M  END
>  <meeko>  (611) 
{"is_sidechain": [true], "free_energy": -11.97, "intermolecular_energy": 0.0, "internal_energy": -11.97, "cluster_size": 12, "cluster_id": 1, "rank_in_cluster": 1}

>  <_RMSD_MCS_to_ref>  (611) 
1.7962685706145889

$$$$
ligand
     RDKit          3D

 62 67  0  0  0  0  0  0  0  0999 V2000
   24.8540    9.4020    7.6050 C   0  0  0  0  0  0  0  0  0  0  0  0
   25.5230   10.7550    7.4270 C   0  0  0  0  0  0  0  0  0  0  0  0
   26.2880   10.8400    6.1530 C   0  0  0  0  0  0  0  0  0  0  0  0
   25.8900   11.3510    4.9330 C   0  0  0  0  0  0  0  0  0  0  0  0
   26.9660   11.1420    4.1160 N   0  0  0  0  0  0  0  0  0  0  0  0
   27.1590   11.7700    2.5640 S   0  0  0  0  0  6  0  0  0  0  0  0
   28.5590   11.5490    2.2500 O   0  0  0  0  0  0  0  0  0  0  0  0
   26.0990   11.1570    1.7850 O   0  0  0  0  0  0  0  0  0  0  0  0
   26.8810   13.3700    2.6920 O   0  0  0  0  0  0  0  0  0  0  0  0
   26.2820   13.9340    3.7890 C   0  0  0  0  0  0  0  0  0  0  0  0
   25.0550   14.5900    3.7930 C   0  0  0  0  0  0  0  0  0  0  0  0
   24.5600   15.1200    4.9870 C   0  0  0  0  0  0  0  0  0  0  0  0
   25.2880   14.9940    6.1810 C   0  0  0  0  0  0  0  0  0  0  0  0
   24.8160   15.5160    7.3950 C   0  0  0  0  0  0  0  0  0  0  0  0
   25.5620   15.3790    8.5710 C   0  0  0  0  0  0  0  0  0  0  0  0
   25.0950   15.9190    9.8550 C   0  0  0  0  0  0  0  0  0  0  0  0
   23.7200   15.8650   10.2010 C   0  0  0  0  0  0  0  0  0  0  0  0
   23.2490   16.3750   11.4140 C   0  0  0  0  0  0  0  0  0  0  0  0
   24.1770   16.9350   12.2680 C   0  0  0  0  0  0  0  0  0  0  0  0
   25.5320   17.0080   11.9630 C   0  0  0  0  0  0  0  0  0  0  0  0
   26.0050   16.5050   10.7610 C   0  0  0  0  0  0  0  0  0  0  0  0
   26.2700   17.6890   13.0670 C   0  0  0  0  0  0  0  0  0  0  0  0
   25.2250   17.9020   14.0610 N   0  0  0  0  0  0  0  0  0  0  0  0
   25.3890   18.7620   15.2280 C   0  0  1  0  0  0  0  0  0  0  0  0
   26.3260   18.1590   16.2710 C   0  0  0  0  0  0  0  0  0  0  0  0
   26.3750   19.0670   17.4900 C   0  0  0  0  0  0  0  0  0  0  0  0
   26.7820   20.4710   17.1090 C   0  0  0  0  0  0  0  0  0  0  0  0
   27.4830   21.1710   17.8330 O   0  0  0  0  0  0  0  0  0  0  0  0
   26.3130   20.9410   15.9090 N   0  0  0  0  0  0  0  0  0  0  0  0
   25.8980   20.1640   14.8500 C   0  0  0  0  0  0  0  0  0  0  0  0
   25.9590   20.5970   13.7020 O   0  0  0  0  0  0  0  0  0  0  0  0
   23.9710   17.5460   13.5860 C   0  0  0  0  0  0  0  0  0  0  0  0
   22.8940   17.6950   14.1290 O   0  0  0  0  0  0  0  0  0  0  0  0
   26.7730   14.7030    8.4500 C   0  0  0  0  0  0  0  0  0  0  0  0
   27.2640   14.1850    7.2970 N   0  0  0  0  0  0  0  0  0  0  0  0
   26.5300   14.3300    6.1820 C   0  0  0  0  0  0  0  0  0  0  0  0
   27.0020   13.8130    4.9830 C   0  0  0  0  0  0  0  0  0  0  0  0
   27.9810   10.6120    4.8450 C   0  0  0  0  0  0  0  0  0  0  0  0
   27.5920   10.3910    6.0840 N   0  0  0  0  0  0  0  0  0  0  0  0
   24.7464    9.1845    8.6779 H   0  0  0  0  0  0  0  0  0  0  0  0
   23.8606    9.4192    7.1330 H   0  0  0  0  0  0  0  0  0  0  0  0
   25.4708    8.6230    7.1330 H   0  0  0  0  0  0  0  0  0  0  0  0
   24.7485   11.5361    7.4281 H   0  0  0  0  0  0  0  0  0  0  0  0
   26.2318   10.8933    8.2567 H   0  0  0  0  0  0  0  0  0  0  0  0
   24.9278   11.8189    4.6774 H   0  0  0  0  0  0  0  0  0  0  0  0
   24.4783   14.6907    2.8617 H   0  0  0  0  0  0  0  0  0  0  0  0
   23.5911   15.6408    4.9918 H   0  0  0  0  0  0  0  0  0  0  0  0
   23.8486   16.0388    7.4226 H   0  0  0  0  0  0  0  0  0  0  0  0
   23.0072   15.4105    9.4972 H   0  0  0  0  0  0  0  0  0  0  0  0
   22.1818   16.3317   11.6772 H   0  0  0  0  0  0  0  0  0  0  0  0
   27.0759   16.5618   10.5163 H   0  0  0  0  0  0  0  0  0  0  0  0
   27.0714   17.0484   13.4638 H   0  0  0  0  0  0  0  0  0  0  0  0
   26.7715   18.6162   12.7525 H   0  0  0  0  0  0  0  0  0  0  0  0
   24.3837   18.8507   15.6655 H   0  0  0  0  0  0  0  0  0  0  0  0
   25.9556   17.1665   16.5672 H   0  0  0  0  0  0  0  0  0  0  0  0
   27.3354   18.0602   15.8452 H   0  0  0  0  0  0  0  0  0  0  0  0
   25.3790   19.0961   17.9561 H   0  0  0  0  0  0  0  0  0  0  0  0
   27.1205   18.6667   18.1929 H   0  0  0  0  0  0  0  0  0  0  0  0
   26.2671   21.9630   15.7893 H   0  0  0  0  0  0  0  0  0  0  0  0
   27.3784   14.5795    9.3601 H   0  0  0  0  0  0  0  0  0  0  0  0
   27.9711   13.2926    4.9712 H   0  0  0  0  0  0  0  0  0  0  0  0
   28.9872   10.3972    4.4558 H   0  0  0  0  0  0  0  0  0  0  0  0
  1  2  1  0
  2  3  1  0
  3  4  2  0
  4  5  1  0
  5  6  1  0
  6  7  2  0
  6  8  2  0
  6  9  1  0
  9 10  1  0
 10 11  2  0
 11 12  1  0
 12 13  2  0
 13 14  1  0
 14 15  2  0
 15 16  1  0
 16 17  2  0
 17 18  1  0
 18 19  2  0
 19 20  1  0
 20 21  2  0
 20 22  1  0
 22 23  1  0
 23 24  1  0
 24 25  1  0
 25 26  1  0
 26 27  1  0
 27 28  2  0
 27 29  1  0
 29 30  1  0
 30 31  2  0
 23 32  1  0
 32 33  2  0
 15 34  1  0
 34 35  2  0
 35 36  1  0
 36 37  2  0
  5 38  1  0
 38 39  2  0
 39  3  1  0
 37 10  1  0
 36 13  1  0
 21 16  1  0
 30 24  1  0
 32 19  1  0
  1 40  1  0
  1 41  1  0
  1 42  1  0
  2 43  1  0
  2 44  1  0
  4 45  1  0
 11 46  1  0
 12 47  1  0
 14 48  1  0
 17 49  1  0
 18 50  1  0
 21 51  1  0
 22 52  1  0
 22 53  1  0
 24 54  1  1
 25 55  1  0
 25 56  1  0
 26 57  1  0
 26 58  1  0
 29 59  1  0
 34 60  1  0
 37 61  1  0
 38 62  1  0
M  END
>  <meeko>  (612) 
{"is_sidechain": [true], "free_energy": -11.97, "intermolecular_energy": 0.0, "internal_energy": -11.97, "cluster_size": 19, "cluster_id": 1, "rank_in_cluster": 1}

>  <_RMSD_MCS_to_ref>  (612) 
0.9407834796357524

$$$$
ligand
     RDKit          3D

 60 65  0  0  0  0  0  0  0  0999 V2000
   24.8710    9.6160    7.7820 C   0  0  0  0  0  0  0  0  0  0  0  0
   25.4240   10.9650    7.3490 C   0  0  0  0  0  0  0  0  0  0  0  0
   26.7570   10.8440    6.6990 C   0  0  0  0  0  0  0  0  0  0  0  0
   27.9930   11.2400    7.1690 C   0  0  0  0  0  0  0  0  0  0  0  0
   28.8630   10.8560    6.1890 N   0  0  0  0  0  0  0  0  0  0  0  0
   30.4920   11.2840    6.0930 S   0  0  0  0  0  6  0  0  0  0  0  0
   30.8030   11.2100    4.6770 O   0  0  0  0  0  0  0  0  0  0  0  0
   31.1490   10.4260    7.0620 O   0  0  0  0  0  0  0  0  0  0  0  0
   30.5700   12.8290    6.5900 O   0  0  0  0  0  0  0  0  0  0  0  0
   29.6120   13.4570    7.3010 C   0  0  0  0  0  0  0  0  0  0  0  0
   29.6940   13.4650    8.6730 C   0  0  0  0  0  0  0  0  0  0  0  0
   28.6120   14.1460    9.1520 N   0  0  0  0  0  0  0  0  0  0  0  0
   27.8360   14.6080    8.1090 C   0  0  0  0  0  0  0  0  0  0  0  0
   26.6490   15.3530    8.1290 C   0  0  0  0  0  0  0  0  0  0  0  0
   26.0050   15.8410    9.3500 C   0  0  0  0  0  0  0  0  0  0  0  0
   24.6290   15.6030    9.6030 C   0  0  0  0  0  0  0  0  0  0  0  0
   24.0050   16.0740   10.7630 C   0  0  0  0  0  0  0  0  0  0  0  0
   24.7850   16.7700   11.6630 C   0  0  0  0  0  0  0  0  0  0  0  0
   26.1390   17.0090   11.4570 C   0  0  0  0  0  0  0  0  0  0  0  0
   26.7610   16.5490   10.3080 C   0  0  0  0  0  0  0  0  0  0  0  0
   26.6990   17.7900   12.5960 C   0  0  0  0  0  0  0  0  0  0  0  0
   25.5660   17.8810   13.5090 N   0  0  0  0  0  0  0  0  0  0  0  0
   25.6000   18.7590   14.6730 C   0  0  2  0  0  0  0  0  0  0  0  0
   26.3920   20.0460   14.4510 C   0  0  0  0  0  0  0  0  0  0  0  0
   26.3100   20.9100   15.7010 C   0  0  0  0  0  0  0  0  0  0  0  0
   26.8070   20.1630   16.9170 C   0  0  0  0  0  0  0  0  0  0  0  0
   27.2290   20.7430   17.9130 O   0  0  0  0  0  0  0  0  0  0  0  0
   26.6870   18.7970   16.8920 N   0  0  0  0  0  0  0  0  0  0  0  0
   26.1170   18.0140   15.9140 C   0  0  0  0  0  0  0  0  0  0  0  0
   25.9530   16.8090   16.1000 O   0  0  0  0  0  0  0  0  0  0  0  0
   24.4040   17.3750   12.9450 C   0  0  0  0  0  0  0  0  0  0  0  0
   23.2690   17.4190   13.3760 O   0  0  0  0  0  0  0  0  0  0  0  0
   26.0360   15.6210    6.9480 N   0  0  0  0  0  0  0  0  0  0  0  0
   26.6020   15.2050    5.7990 C   0  0  0  0  0  0  0  0  0  0  0  0
   27.7870   14.4890    5.7150 C   0  0  0  0  0  0  0  0  0  0  0  0
   28.4310   14.1650    6.9200 C   0  0  0  0  0  0  0  0  0  0  0  0
   28.1600   10.3370    5.1490 C   0  0  0  0  0  0  0  0  0  0  0  0
   26.8760   10.2900    5.4380 N   0  0  0  0  0  0  0  0  0  0  0  0
   24.8497    9.5640    8.8806 H   0  0  0  0  0  0  0  0  0  0  0  0
   23.8507    9.4948    7.3893 H   0  0  0  0  0  0  0  0  0  0  0  0
   25.5127    8.8135    7.3893 H   0  0  0  0  0  0  0  0  0  0  0  0
   24.7226   11.4230    6.6361 H   0  0  0  0  0  0  0  0  0  0  0  0
   25.5426   11.5859    8.2492 H   0  0  0  0  0  0  0  0  0  0  0  0
   28.2243   11.7487    8.1165 H   0  0  0  0  0  0  0  0  0  0  0  0
   30.4896   13.0048    9.2774 H   0  0  0  0  0  0  0  0  0  0  0  0
   28.4046   14.2938   10.1500 H   0  0  0  0  0  0  0  0  0  0  0  0
   24.0389   15.0344    8.8692 H   0  0  0  0  0  0  0  0  0  0  0  0
   22.9356   15.8965   10.9499 H   0  0  0  0  0  0  0  0  0  0  0  0
   27.8329   16.7337   10.1442 H   0  0  0  0  0  0  0  0  0  0  0  0
   27.5432   17.2612   13.0627 H   0  0  0  0  0  0  0  0  0  0  0  0
   27.0999   18.7701   12.2983 H   0  0  0  0  0  0  0  0  0  0  0  0
   24.5573   19.0651   14.8436 H   0  0  0  0  0  0  0  0  0  0  0  0
   27.4436   19.7990   14.2436 H   0  0  0  0  0  0  0  0  0  0  0  0
   25.9705   20.5948   13.5959 H   0  0  0  0  0  0  0  0  0  0  0  0
   26.9263   21.8095   15.5561 H   0  0  0  0  0  0  0  0  0  0  0  0
   25.2573   21.1827   15.8667 H   0  0  0  0  0  0  0  0  0  0  0  0
   27.0708   18.2951   17.7055 H   0  0  0  0  0  0  0  0  0  0  0  0
   26.0870   15.4509    4.8586 H   0  0  0  0  0  0  0  0  0  0  0  0
   28.2054   14.1871    4.7435 H   0  0  0  0  0  0  0  0  0  0  0  0
   28.6014   10.0028    4.1985 H   0  0  0  0  0  0  0  0  0  0  0  0
  1  2  1  0
  2  3  1  0
  3  4  2  0
  4  5  1  0
  5  6  1  0
  6  7  2  0
  6  8  2  0
  6  9  1  0
  9 10  1  0
 10 11  2  0
 11 12  1  0
 12 13  1  0
 13 14  2  0
 14 15  1  0
 15 16  2  0
 16 17  1  0
 17 18  2  0
 18 19  1  0
 19 20  2  0
 19 21  1  0
 21 22  1  0
 22 23  1  0
 23 24  1  0
 24 25  1  0
 25 26  1  0
 26 27  2  0
 26 28  1  0
 28 29  1  0
 29 30  2  0
 22 31  1  0
 31 32  2  0
 14 33  1  0
 33 34  2  0
 34 35  1  0
 35 36  2  0
  5 37  1  0
 37 38  2  0
 38  3  1  0
 36 10  1  0
 36 13  1  0
 20 15  1  0
 29 23  1  0
 31 18  1  0
  1 39  1  0
  1 40  1  0
  1 41  1  0
  2 42  1  0
  2 43  1  0
  4 44  1  0
 11 45  1  0
 12 46  1  0
 16 47  1  0
 17 48  1  0
 20 49  1  0
 21 50  1  0
 21 51  1  0
 23 52  1  1
 24 53  1  0
 24 54  1  0
 25 55  1  0
 25 56  1  0
 28 57  1  0
 34 58  1  0
 35 59  1  0
 37 60  1  0
M  END
>  <meeko>  (613) 
{"is_sidechain": [true], "free_energy": -11.97, "intermolecular_energy": 0.0, "internal_energy": -11.97, "cluster_size": 19, "cluster_id": 1, "rank_in_cluster": 1}

>  <_RMSD_MCS_to_ref>  (613) 
1.8013546656832873

$$$$
ligand
     RDKit          3D

 50 53  0  0  0  0  0  0  0  0999 V2000
   24.8710    9.6160    7.7820 C   0  0  0  0  0  0  0  0  0  0  0  0
   25.4240   10.9650    7.3490 C   0  0  0  0  0  0  0  0  0  0  0  0
   26.6410   11.3450    8.1170 C   0  0  0  0  0  0  0  0  0  0  0  0
   27.8620   11.7890    7.6480 C   0  0  0  0  0  0  0  0  0  0  0  0
   28.6190   11.9470    8.7750 N   0  0  0  0  0  0  0  0  0  0  0  0
   30.1110   12.7330    8.8540 S   0  0  0  0  0  6  0  0  0  0  0  0
   30.7580   12.3820    7.6060 O   0  0  0  0  0  0  0  0  0  0  0  0
   30.6370   12.3590   10.1520 O   0  0  0  0  0  0  0  0  0  0  0  0
   29.7580   14.3180    8.8510 O   0  0  0  0  0  0  0  0  0  0  0  0
   28.5170   14.7950    9.0230 C   0  0  0  0  0  0  0  0  0  0  0  0
   28.1130   15.3580   10.1060 N   0  0  0  0  0  0  0  0  0  0  0  0
   26.7890   15.8060   10.1430 C   0  0  0  0  0  0  0  0  0  0  0  0
   26.4320   16.3860   11.3060 N   0  0  0  0  0  0  0  0  0  0  0  0
   25.1490   16.8350   11.3960 C   0  0  0  0  0  0  0  0  0  0  0  0
   24.7670   17.4740   12.6950 C   0  0  0  0  0  0  0  0  0  0  0  0
   23.6080   17.7920   12.9380 O   0  0  0  0  0  0  0  0  0  0  0  0
   25.8130   17.6760   13.5660 N   0  0  0  0  0  0  0  0  0  0  0  0
   25.6580   18.3890   14.8210 C   0  0  1  0  0  0  0  0  0  0  0  0
   26.5860   17.8370   15.9000 C   0  0  0  0  0  0  0  0  0  0  0  0
   26.3910   18.6220   17.1870 C   0  0  0  0  0  0  0  0  0  0  0  0
   26.6080   20.1000   16.9670 C   0  0  0  0  0  0  0  0  0  0  0  0
   27.0680   20.8350   17.8370 O   0  0  0  0  0  0  0  0  0  0  0  0
   26.2290   20.6010   15.7470 N   0  0  0  0  0  0  0  0  0  0  0  0
   25.9600   19.8770   14.6110 C   0  0  0  0  0  0  0  0  0  0  0  0
   25.9420   20.4210   13.5080 O   0  0  0  0  0  0  0  0  0  0  0  0
   24.2110   16.7290   10.3730 C   0  0  0  0  0  0  0  0  0  0  0  0
   24.6050   16.1290    9.1810 C   0  0  0  0  0  0  0  0  0  0  0  0
   25.9130   15.6640    9.0730 C   0  0  0  0  0  0  0  0  0  0  0  0
   26.4280   15.0150    7.8640 C   0  0  0  0  0  0  0  0  0  0  0  0
   25.7300   14.8470    6.8720 O   0  0  0  0  0  0  0  0  0  0  0  0
   27.7350   14.6120    7.9210 N   0  0  0  0  0  0  0  0  0  0  0  0
   27.8480   11.6890    9.8640 C   0  0  0  0  0  0  0  0  0  0  0  0
   26.6440   11.3020    9.4970 N   0  0  0  0  0  0  0  0  0  0  0  0
   24.8497    9.5640    8.8806 H   0  0  0  0  0  0  0  0  0  0  0  0
   23.8507    9.4948    7.3893 H   0  0  0  0  0  0  0  0  0  0  0  0
   25.5127    8.8135    7.3893 H   0  0  0  0  0  0  0  0  0  0  0  0
   25.6800   10.9167    6.2803 H   0  0  0  0  0  0  0  0  0  0  0  0
   24.6519   11.7246    7.5411 H   0  0  0  0  0  0  0  0  0  0  0  0
   28.1579   11.9735    6.6047 H   0  0  0  0  0  0  0  0  0  0  0  0
   26.7421   17.3070   13.3179 H   0  0  0  0  0  0  0  0  0  0  0  0
   24.6192   18.2545   15.1567 H   0  0  0  0  0  0  0  0  0  0  0  0
   26.3515   16.7771   16.0780 H   0  0  0  0  0  0  0  0  0  0  0  0
   27.6305   17.9311   15.5681 H   0  0  0  0  0  0  0  0  0  0  0  0
   25.3663   18.4610   17.5530 H   0  0  0  0  0  0  0  0  0  0  0  0
   27.1277   18.2690   17.9237 H   0  0  0  0  0  0  0  0  0  0  0  0
   26.1368   21.6244   15.6758 H   0  0  0  0  0  0  0  0  0  0  0  0
   23.1869   17.1089   10.5033 H   0  0  0  0  0  0  0  0  0  0  0  0
   23.8996   16.0245    8.3435 H   0  0  0  0  0  0  0  0  0  0  0  0
   28.1452   14.1509    7.0964 H   0  0  0  0  0  0  0  0  0  0  0  0
   28.1831   11.7895   10.9069 H   0  0  0  0  0  0  0  0  0  0  0  0
  1  2  1  0
  2  3  1  0
  3  4  2  0
  4  5  1  0
  5  6  1  0
  6  7  2  0
  6  8  2  0
  6  9  1  0
  9 10  1  0
 10 11  2  0
 11 12  1  0
 12 13  2  0
 13 14  1  0
 14 15  1  0
 15 16  2  0
 15 17  1  0
 17 18  1  0
 18 19  1  0
 19 20  1  0
 20 21  1  0
 21 22  2  0
 21 23  1  0
 23 24  1  0
 24 25  2  0
 14 26  2  0
 26 27  1  0
 27 28  2  0
 28 29  1  0
 29 30  2  0
 29 31  1  0
  5 32  1  0
 32 33  2  0
 33  3  1  0
 31 10  1  0
 28 12  1  0
 24 18  1  0
  1 34  1  0
  1 35  1  0
  1 36  1  0
  2 37  1  0
  2 38  1  0
  4 39  1  0
 17 40  1  0
 18 41  1  1
 19 42  1  0
 19 43  1  0
 20 44  1  0
 20 45  1  0
 23 46  1  0
 26 47  1  0
 27 48  1  0
 31 49  1  0
 32 50  1  0
M  END
>  <meeko>  (614) 
{"is_sidechain": [true], "free_energy": -11.97, "intermolecular_energy": 0.0, "internal_energy": -11.97, "cluster_size": 20, "cluster_id": 1, "rank_in_cluster": 1}

>  <_RMSD_MCS_to_ref>  (614) 
0.9569267939026938

$$$$
ligand
     RDKit          3D

 60 64  0  0  0  0  0  0  0  0999 V2000
   24.8540    9.4020    7.6050 C   0  0  0  0  0  0  0  0  0  0  0  0
   25.5230   10.7550    7.4270 C   0  0  0  0  0  0  0  0  0  0  0  0
   27.0080   10.6580    7.4630 C   0  0  0  0  0  0  0  0  0  0  0  0
   27.9490   11.6260    7.1710 C   0  0  0  0  0  0  0  0  0  0  0  0
   29.1460   10.9900    7.3440 N   0  0  0  0  0  0  0  0  0  0  0  0
   30.6590   11.7160    7.3150 S   0  0  0  0  0  6  0  0  0  0  0  0
   31.5290   10.8600    8.0980 O   0  0  0  0  0  0  0  0  0  0  0  0
   30.9270   12.0280    5.9240 O   0  0  0  0  0  0  0  0  0  0  0  0
   30.4210   13.2320    8.2000 C   0  0  0  0  0  0  0  0  0  0  0  0
   31.5280   14.0100    8.5460 C   0  0  0  0  0  0  0  0  0  0  0  0
   31.3340   15.2000    9.2440 C   0  0  0  0  0  0  0  0  0  0  0  0
   30.0430   15.5940    9.6070 C   0  0  0  0  0  0  0  0  0  0  0  0
   28.9340   14.7970    9.2930 C   0  0  0  0  0  0  0  0  0  0  0  0
   27.5980   15.2360    9.6880 C   0  0  0  0  0  0  0  0  0  0  0  0
   27.3310   15.9400   10.7750 N   0  0  0  0  0  0  0  0  0  0  0  0
   25.9560   16.1260   10.8000 C   0  0  0  0  0  0  0  0  0  0  0  0
   25.2790   16.8900   11.8470 C   0  0  0  0  0  0  0  0  0  0  0  0
   24.1000   17.2240   11.7890 O   0  0  0  0  0  0  0  0  0  0  0  0
   26.1090   17.2090   12.8940 N   0  0  0  0  0  0  0  0  0  0  0  0
   25.7090   18.1040   13.9600 C   0  0  1  0  0  0  0  0  0  0  0  0
   26.1050   17.5680   15.3330 C   0  0  0  0  0  0  0  0  0  0  0  0
   25.6770   18.5540   16.4090 C   0  0  0  0  0  0  0  0  0  0  0  0
   26.2560   19.9260   16.1560 C   0  0  0  0  0  0  0  0  0  0  0  0
   26.5710   20.6860   17.0670 O   0  0  0  0  0  0  0  0  0  0  0  0
   26.3860   20.3040   14.8430 N   0  0  0  0  0  0  0  0  0  0  0  0
   26.3650   19.4720   13.7500 C   0  0  0  0  0  0  0  0  0  0  0  0
   26.8340   19.8380   12.6740 O   0  0  0  0  0  0  0  0  0  0  0  0
   25.3790   15.4930    9.7170 C   0  0  0  0  0  0  0  0  0  0  0  0
   26.4310   14.9510    9.0210 N   0  0  0  0  0  0  0  0  0  0  0  0
   26.2290   14.1140    7.8540 C   0  0  0  0  0  0  0  0  0  0  0  0
   24.8290   14.3420    7.2950 C   0  0  0  0  0  0  0  0  0  0  0  0
   23.8710   14.2560    8.3530 O   0  0  0  0  0  0  0  0  0  0  0  0
   23.9720   15.3600    9.2670 C   0  0  0  0  0  0  0  0  0  0  0  0
   29.1270   13.6140    8.5710 C   0  0  0  0  0  0  0  0  0  0  0  0
   28.9190    9.7210    7.7690 C   0  0  0  0  0  0  0  0  0  0  0  0
   27.6270    9.4810    7.8380 N   0  0  0  0  0  0  0  0  0  0  0  0
   24.7464    9.1845    8.6779 H   0  0  0  0  0  0  0  0  0  0  0  0
   23.8606    9.4192    7.1330 H   0  0  0  0  0  0  0  0  0  0  0  0
   25.4708    8.6230    7.1330 H   0  0  0  0  0  0  0  0  0  0  0  0
   25.2190   11.1754    6.4570 H   0  0  0  0  0  0  0  0  0  0  0  0
   25.2068   11.3999    8.2601 H   0  0  0  0  0  0  0  0  0  0  0  0
   27.7748   12.6692    6.8687 H   0  0  0  0  0  0  0  0  0  0  0  0
   32.5426   13.6866    8.2703 H   0  0  0  0  0  0  0  0  0  0  0  0
   32.1964   15.8292    9.5093 H   0  0  0  0  0  0  0  0  0  0  0  0
   29.8957   16.5416   10.1459 H   0  0  0  0  0  0  0  0  0  0  0  0
   27.0521   16.7958   12.9220 H   0  0  0  0  0  0  0  0  0  0  0  0
   24.6128   18.1905   13.9299 H   0  0  0  0  0  0  0  0  0  0  0  0
   25.6100   16.6008   15.5050 H   0  0  0  0  0  0  0  0  0  0  0  0
   27.1963   17.4355   15.3724 H   0  0  0  0  0  0  0  0  0  0  0  0
   24.5792   18.6237   16.4153 H   0  0  0  0  0  0  0  0  0  0  0  0
   26.0490   18.1931   17.3792 H   0  0  0  0  0  0  0  0  0  0  0  0
   26.5116   21.3097   14.6592 H   0  0  0  0  0  0  0  0  0  0  0  0
   26.9751   14.3694    7.0871 H   0  0  0  0  0  0  0  0  0  0  0  0
   26.3399   13.0575    8.1395 H   0  0  0  0  0  0  0  0  0  0  0  0
   24.7767   15.3393    6.8338 H   0  0  0  0  0  0  0  0  0  0  0  0
   24.6080   13.5748    6.5384 H   0  0  0  0  0  0  0  0  0  0  0  0
   23.6581   16.2855    8.7622 H   0  0  0  0  0  0  0  0  0  0  0  0
   23.3213   15.1815   10.1357 H   0  0  0  0  0  0  0  0  0  0  0  0
   28.2657   12.9874    8.2964 H   0  0  0  0  0  0  0  0  0  0  0  0
   29.7056    8.9944    8.0207 H   0  0  0  0  0  0  0  0  0  0  0  0
  1  2  1  0
  2  3  1  0
  3  4  2  0
  4  5  1  0
  5  6  1  0
  6  7  2  0
  6  8  2  0
  6  9  1  0
  9 10  2  0
 10 11  1  0
 11 12  2  0
 12 13  1  0
 13 14  1  0
 14 15  2  0
 15 16  1  0
 16 17  1  0
 17 18  2  0
 17 19  1  0
 19 20  1  0
 20 21  1  0
 21 22  1  0
 22 23  1  0
 23 24  2  0
 23 25  1  0
 25 26  1  0
 26 27  2  0
 16 28  2  0
 28 29  1  0
 29 30  1  0
 30 31  1  0
 31 32  1  0
 32 33  1  0
 13 34  2  0
  5 35  1  0
 35 36  2  0
 36  3  1  0
 34  9  1  0
 29 14  1  0
 26 20  1  0
 33 28  1  0
  1 37  1  0
  1 38  1  0
  1 39  1  0
  2 40  1  0
  2 41  1  0
  4 42  1  0
 10 43  1  0
 11 44  1  0
 12 45  1  0
 19 46  1  0
 20 47  1  1
 21 48  1  0
 21 49  1  0
 22 50  1  0
 22 51  1  0
 25 52  1  0
 30 53  1  0
 30 54  1  0
 31 55  1  0
 31 56  1  0
 33 57  1  0
 33 58  1  0
 34 59  1  0
 35 60  1  0
M  END
>  <meeko>  (615) 
{"is_sidechain": [true], "free_energy": -11.96, "intermolecular_energy": 0.0, "internal_energy": -11.96, "cluster_size": 12, "cluster_id": 1, "rank_in_cluster": 1}

>  <_RMSD_MCS_to_ref>  (615) 
1.283196096558207

$$$$
ligand
     RDKit          3D

 60 65  0  0  0  0  0  0  0  0999 V2000
   24.8710    9.6160    7.7820 C   0  0  0  0  0  0  0  0  0  0  0  0
   25.4240   10.9650    7.3490 C   0  0  0  0  0  0  0  0  0  0  0  0
   25.0660   11.2930    5.9410 C   0  0  0  0  0  0  0  0  0  0  0  0
   24.2040   12.2610    5.4660 C   0  0  0  0  0  0  0  0  0  0  0  0
   24.2810   12.1410    4.1080 N   0  0  0  0  0  0  0  0  0  0  0  0
   23.2620   12.8900    2.9950 S   0  0  0  0  0  6  0  0  0  0  0  0
   21.9420   12.8220    3.5940 O   0  0  0  0  0  0  0  0  0  0  0  0
   23.5570   12.2460    1.7290 O   0  0  0  0  0  0  0  0  0  0  0  0
   23.7370   14.4460    2.9260 O   0  0  0  0  0  0  0  0  0  0  0  0
   25.0540   14.8630    3.0340 C   0  0  0  0  0  0  0  0  0  0  0  0
   25.9400   14.9380    2.0160 C   0  0  0  0  0  0  0  0  0  0  0  0
   27.2980   15.3980    2.2710 C   0  0  0  0  0  0  0  0  0  0  0  0
   27.7020   15.7570    3.5020 C   0  0  0  0  0  0  0  0  0  0  0  0
   26.7880   15.6880    4.5880 C   0  0  0  0  0  0  0  0  0  0  0  0
   26.9370   15.9760    5.8630 N   0  0  0  0  0  0  0  0  0  0  0  0
   25.7180   15.7160    6.4510 C   0  0  0  0  0  0  0  0  0  0  0  0
   25.4680   15.9070    7.8730 C   0  0  0  0  0  0  0  0  0  0  0  0
   24.4410   15.1560    8.4980 C   0  0  0  0  0  0  0  0  0  0  0  0
   24.1480   15.2910    9.8630 C   0  0  0  0  0  0  0  0  0  0  0  0
   24.8950   16.1880   10.6000 C   0  0  0  0  0  0  0  0  0  0  0  0
   25.9010   16.9290    9.9830 C   0  0  0  0  0  0  0  0  0  0  0  0
   26.2130   16.8110    8.6400 C   0  0  0  0  0  0  0  0  0  0  0  0
   26.5280   17.7800   10.9990 C   0  0  0  0  0  0  0  0  0  0  0  0
   27.4880   18.5000   10.8110 O   0  0  0  0  0  0  0  0  0  0  0  0
   25.8440   17.5610   12.1840 N   0  0  0  0  0  0  0  0  0  0  0  0
   26.3110   18.0860   13.4630 C   0  0  2  0  0  0  0  0  0  0  0  0
   25.7170   17.2910   14.6260 C   0  0  0  0  0  0  0  0  0  0  0  0
   26.3180   17.7700   15.9380 C   0  0  0  0  0  0  0  0  0  0  0  0
   26.1150   19.2540   16.1230 C   0  0  0  0  0  0  0  0  0  0  0  0
   25.9660   19.7650   17.2280 O   0  0  0  0  0  0  0  0  0  0  0  0
   26.1380   20.0220   14.9860 N   0  0  0  0  0  0  0  0  0  0  0  0
   26.0500   19.5850   13.6840 C   0  0  0  0  0  0  0  0  0  0  0  0
   25.8060   20.3880   12.7840 O   0  0  0  0  0  0  0  0  0  0  0  0
   24.8140   16.5370   12.0500 C   0  0  0  0  0  0  0  0  0  0  0  0
   24.8170   15.2650    5.5080 C   0  0  0  0  0  0  0  0  0  0  0  0
   25.4990   15.2450    4.3130 N   0  0  0  0  0  0  0  0  0  0  0  0
   25.0880   11.0920    3.7990 C   0  0  0  0  0  0  0  0  0  0  0  0
   25.6040   10.5710    4.8940 N   0  0  0  0  0  0  0  0  0  0  0  0
   24.8497    9.5640    8.8806 H   0  0  0  0  0  0  0  0  0  0  0  0
   23.8507    9.4948    7.3893 H   0  0  0  0  0  0  0  0  0  0  0  0
   25.5127    8.8135    7.3893 H   0  0  0  0  0  0  0  0  0  0  0  0
   25.0153   11.7441    8.0093 H   0  0  0  0  0  0  0  0  0  0  0  0
   26.5209   10.9183    7.4169 H   0  0  0  0  0  0  0  0  0  0  0  0
   23.5944   12.9675    6.0484 H   0  0  0  0  0  0  0  0  0  0  0  0
   25.6362   14.6525    0.9981 H   0  0  0  0  0  0  0  0  0  0  0  0
   28.0112   15.4531    1.4353 H   0  0  0  0  0  0  0  0  0  0  0  0
   28.7333   16.1019    3.6675 H   0  0  0  0  0  0  0  0  0  0  0  0
   23.8564   14.4461    7.8945 H   0  0  0  0  0  0  0  0  0  0  0  0
   23.3474   14.7001   10.3320 H   0  0  0  0  0  0  0  0  0  0  0  0
   27.0199   17.4078    8.1897 H   0  0  0  0  0  0  0  0  0  0  0  0
   27.4040   17.9675   13.4282 H   0  0  0  0  0  0  0  0  0  0  0  0
   24.6270   17.4369   14.6489 H   0  0  0  0  0  0  0  0  0  0  0  0
   25.9455   16.2236   14.4903 H   0  0  0  0  0  0  0  0  0  0  0  0
   25.8355   17.2356   16.7697 H   0  0  0  0  0  0  0  0  0  0  0  0
   27.3988   17.5663   15.9204 H   0  0  0  0  0  0  0  0  0  0  0  0
   26.2315   21.0387   15.1222 H   0  0  0  0  0  0  0  0  0  0  0  0
   25.0356   15.6646   12.6822 H   0  0  0  0  0  0  0  0  0  0  0  0
   23.8156   16.8740   12.3657 H   0  0  0  0  0  0  0  0  0  0  0  0
   23.7681   14.9798    5.6770 H   0  0  0  0  0  0  0  0  0  0  0  0
   25.2829   10.7291    2.7790 H   0  0  0  0  0  0  0  0  0  0  0  0
  1  2  1  0
  2  3  1  0
  3  4  2  0
  4  5  1  0
  5  6  1  0
  6  7  2  0
  6  8  2  0
  6  9  1  0
  9 10  1  0
 10 11  2  0
 11 12  1  0
 12 13  2  0
 13 14  1  0
 14 15  2  0
 15 16  1  0
 16 17  1  0
 17 18  2  0
 18 19  1  0
 19 20  2  0
 20 21  1  0
 21 22  2  0
 21 23  1  0
 23 24  2  0
 23 25  1  0
 25 26  1  0
 26 27  1  0
 27 28  1  0
 28 29  1  0
 29 30  2  0
 29 31  1  0
 31 32  1  0
 32 33  2  0
 25 34  1  0
 16 35  2  0
 35 36  1  0
  5 37  1  0
 37 38  2  0
 38  3  1  0
 36 10  1  0
 36 14  1  0
 22 17  1  0
 32 26  1  0
 34 20  1  0
  1 39  1  0
  1 40  1  0
  1 41  1  0
  2 42  1  0
  2 43  1  0
  4 44  1  0
 11 45  1  0
 12 46  1  0
 13 47  1  0
 18 48  1  0
 19 49  1  0
 22 50  1  0
 26 51  1  6
 27 52  1  0
 27 53  1  0
 28 54  1  0
 28 55  1  0
 31 56  1  0
 34 57  1  0
 34 58  1  0
 35 59  1  0
 37 60  1  0
M  END
>  <meeko>  (616) 
{"is_sidechain": [true], "free_energy": -11.96, "intermolecular_energy": 0.0, "internal_energy": -11.96, "cluster_size": 3, "cluster_id": 2, "rank_in_cluster": 1}

>  <_RMSD_MCS_to_ref>  (616) 
1.2688368908396208

$$$$
ligand
     RDKit          3D

 56 60  0  0  0  0  0  0  0  0999 V2000
   24.8710    9.6160    7.7820 C   0  0  0  0  0  0  0  0  0  0  0  0
   25.4240   10.9650    7.3490 C   0  0  0  0  0  0  0  0  0  0  0  0
   24.9670   11.3490    5.9860 C   0  0  0  0  0  0  0  0  0  0  0  0
   24.2340   12.4510    5.5920 C   0  0  0  0  0  0  0  0  0  0  0  0
   24.0710   12.2820    4.2470 N   0  0  0  0  0  0  0  0  0  0  0  0
   23.4610   13.4330    3.1760 S   0  0  0  0  0  6  0  0  0  0  0  0
   23.5660   12.8100    1.8700 O   0  0  0  0  0  0  0  0  0  0  0  0
   22.1750   13.8090    3.7360 O   0  0  0  0  0  0  0  0  0  0  0  0
   24.4790   14.7010    3.2590 O   0  0  0  0  0  0  0  0  0  0  0  0
   25.2720   14.9420    4.3510 C   0  0  0  0  0  0  0  0  0  0  0  0
   26.6450   14.9260    4.0960 C   0  0  0  0  0  0  0  0  0  0  0  0
   27.5540   15.1570    5.1260 C   0  0  0  0  0  0  0  0  0  0  0  0
   27.0920   15.4020    6.4200 C   0  0  0  0  0  0  0  0  0  0  0  0
   25.7170   15.4200    6.7040 C   0  0  0  0  0  0  0  0  0  0  0  0
   25.2300   15.6790    8.0710 C   0  0  0  0  0  0  0  0  0  0  0  0
   24.0830   15.0020    8.5700 C   0  0  0  0  0  0  0  0  0  0  0  0
   23.5940   15.2250    9.8640 C   0  0  0  0  0  0  0  0  0  0  0  0
   24.2760   16.1350   10.6440 C   0  0  0  0  0  0  0  0  0  0  0  0
   25.3900   16.8030   10.1770 C   0  0  0  0  0  0  0  0  0  0  0  0
   25.8910   16.6010    8.9040 C   0  0  0  0  0  0  0  0  0  0  0  0
   25.8520   17.6860   11.2460 C   0  0  0  0  0  0  0  0  0  0  0  0
   26.8010   18.4400   11.1500 O   0  0  0  0  0  0  0  0  0  0  0  0
   25.0220   17.4790   12.3150 N   0  0  0  0  0  0  0  0  0  0  0  0
   25.0780   18.2910   13.5210 C   0  0  2  0  0  0  0  0  0  0  0  0
   25.5900   19.7110   13.2970 C   0  0  0  0  0  0  0  0  0  0  0  0
   25.5660   20.4640   14.6190 C   0  0  0  0  0  0  0  0  0  0  0  0
   26.3700   19.7450   15.6760 C   0  0  0  0  0  0  0  0  0  0  0  0
   26.9060   20.3370   16.6090 O   0  0  0  0  0  0  0  0  0  0  0  0
   26.4270   18.3760   15.5810 N   0  0  0  0  0  0  0  0  0  0  0  0
   25.9390   17.5780   14.5690 C   0  0  0  0  0  0  0  0  0  0  0  0
   26.1500   16.3670   14.5740 O   0  0  0  0  0  0  0  0  0  0  0  0
   24.0240   16.5940   12.0080 C   0  0  0  0  0  0  0  0  0  0  0  0
   23.0770   16.2400   12.6840 O   0  0  0  0  0  0  0  0  0  0  0  0
   24.8150   15.1810    5.6490 C   0  0  0  0  0  0  0  0  0  0  0  0
   24.7510   11.1750    3.8530 C   0  0  0  0  0  0  0  0  0  0  0  0
   25.2870   10.5690    4.8910 N   0  0  0  0  0  0  0  0  0  0  0  0
   24.8497    9.5640    8.8806 H   0  0  0  0  0  0  0  0  0  0  0  0
   23.8507    9.4948    7.3893 H   0  0  0  0  0  0  0  0  0  0  0  0
   25.5127    8.8135    7.3893 H   0  0  0  0  0  0  0  0  0  0  0  0
   25.0890   11.7311    8.0638 H   0  0  0  0  0  0  0  0  0  0  0  0
   26.5212   10.8891    7.3282 H   0  0  0  0  0  0  0  0  0  0  0  0
   23.8655   13.2765    6.2187 H   0  0  0  0  0  0  0  0  0  0  0  0
   27.0103   14.7301    3.0771 H   0  0  0  0  0  0  0  0  0  0  0  0
   28.6344   15.1463    4.9197 H   0  0  0  0  0  0  0  0  0  0  0  0
   27.8152   15.5835    7.2287 H   0  0  0  0  0  0  0  0  0  0  0  0
   23.5642   14.2816    7.9205 H   0  0  0  0  0  0  0  0  0  0  0  0
   22.7054   14.6975   10.2410 H   0  0  0  0  0  0  0  0  0  0  0  0
   26.7802   17.1450    8.5527 H   0  0  0  0  0  0  0  0  0  0  0  0
   24.0419   18.4030   13.8729 H   0  0  0  0  0  0  0  0  0  0  0  0
   26.6200   19.6747   12.9126 H   0  0  0  0  0  0  0  0  0  0  0  0
   24.9482   20.2251   12.5663 H   0  0  0  0  0  0  0  0  0  0  0  0
   25.9902   21.4675   14.4673 H   0  0  0  0  0  0  0  0  0  0  0  0
   24.5228   20.5296   14.9618 H   0  0  0  0  0  0  0  0  0  0  0  0
   26.8903   17.8868   16.3601 H   0  0  0  0  0  0  0  0  0  0  0  0
   23.7336   15.1826    5.8505 H   0  0  0  0  0  0  0  0  0  0  0  0
   24.8413   10.8324    2.8116 H   0  0  0  0  0  0  0  0  0  0  0  0
  1  2  1  0
  2  3  1  0
  3  4  2  0
  4  5  1  0
  5  6  1  0
  6  7  2  0
  6  8  2  0
  6  9  1  0
  9 10  1  0
 10 11  2  0
 11 12  1  0
 12 13  2  0
 13 14  1  0
 14 15  1  0
 15 16  2  0
 16 17  1  0
 17 18  2  0
 18 19  1  0
 19 20  2  0
 19 21  1  0
 21 22  2  0
 21 23  1  0
 23 24  1  0
 24 25  1  0
 25 26  1  0
 26 27  1  0
 27 28  2  0
 27 29  1  0
 29 30  1  0
 30 31  2  0
 23 32  1  0
 32 33  2  0
 14 34  2  0
  5 35  1  0
 35 36  2  0
 36  3  1  0
 34 10  1  0
 20 15  1  0
 30 24  1  0
 32 18  1  0
  1 37  1  0
  1 38  1  0
  1 39  1  0
  2 40  1  0
  2 41  1  0
  4 42  1  0
 11 43  1  0
 12 44  1  0
 13 45  1  0
 16 46  1  0
 17 47  1  0
 20 48  1  0
 24 49  1  1
 25 50  1  0
 25 51  1  0
 26 52  1  0
 26 53  1  0
 29 54  1  0
 34 55  1  0
 35 56  1  0
M  END
>  <meeko>  (617) 
{"is_sidechain": [true], "free_energy": -11.95, "intermolecular_energy": 0.0, "internal_energy": -11.95, "cluster_size": 2, "cluster_id": 2, "rank_in_cluster": 1}

>  <_RMSD_MCS_to_ref>  (617) 
1.7692162552652333

$$$$
ligand
     RDKit          3D

 61 65  0  0  0  0  0  0  0  0999 V2000
   24.8540    9.4020    7.6050 C   0  0  0  0  0  0  0  0  0  0  0  0
   25.5230   10.7550    7.4270 C   0  0  0  0  0  0  0  0  0  0  0  0
   27.0030   10.6740    7.5730 C   0  0  0  0  0  0  0  0  0  0  0  0
   27.8820   11.6230    8.0550 C   0  0  0  0  0  0  0  0  0  0  0  0
   29.1020   11.0130    7.9910 N   0  0  0  0  0  0  0  0  0  0  0  0
   30.5850   11.7530    8.2330 S   0  0  0  0  0  6  0  0  0  0  0  0
   31.2600   10.9960    9.2680 O   0  0  0  0  0  0  0  0  0  0  0  0
   31.1480   11.9770    6.9160 O   0  0  0  0  0  0  0  0  0  0  0  0
   30.3860   13.3350    8.9070 C   0  0  0  0  0  0  0  0  0  0  0  0
   31.1090   13.8260    9.9740 C   0  0  0  0  0  0  0  0  0  0  0  0
   30.6670   15.4320   10.3650 S   0  0  0  0  0  0  0  0  0  0  0  0
   29.4770   15.4730    9.1440 C   0  0  0  0  0  0  0  0  0  0  0  0
   29.4520   14.3000    8.4060 C   0  0  0  0  0  0  0  0  0  0  0  0
   28.5100   14.1500    7.2450 C   0  0  0  0  0  0  0  0  0  0  0  0
   27.9850   15.5260    6.7870 C   0  0  0  0  0  0  0  0  0  0  0  0
   27.4980   16.3320    7.9200 N   0  0  0  0  0  0  0  0  0  0  0  0
   28.6190   16.6870    8.8570 C   0  0  1  0  0  0  0  0  0  0  0  0
   28.0040   17.2450   10.1700 C   0  0  0  0  0  0  0  0  0  0  0  0
   28.6000   18.0710   10.8570 O   0  0  0  0  0  0  0  0  0  0  0  0
   26.7610   16.6900   10.4390 N   0  0  0  0  0  0  0  0  0  0  0  0
   25.9150   16.9260   11.5340 C   0  0  0  0  0  0  0  0  0  0  0  0
   24.5440   16.6720   11.5250 C   0  0  0  0  0  0  0  0  0  0  0  0
   23.7720   16.9310   12.6600 C   0  0  0  0  0  0  0  0  0  0  0  0
   24.3640   17.4480   13.8120 C   0  0  0  0  0  0  0  0  0  0  0  0
   25.7400   17.7110   13.8470 C   0  0  0  0  0  0  0  0  0  0  0  0
   26.3590   18.3120   15.0980 C   0  0  2  0  0  0  0  0  0  0  0  0
   25.2740   18.5650   16.1490 C   0  0  0  0  0  0  0  0  0  0  0  0
   25.9050   19.0960   17.4270 C   0  0  0  0  0  0  0  0  0  0  0  0
   26.7020   20.3460   17.1590 C   0  0  0  0  0  0  0  0  0  0  0  0
   26.9060   21.1940   18.0230 O   0  0  0  0  0  0  0  0  0  0  0  0
   27.2490   20.4670   15.9070 N   0  0  0  0  0  0  0  0  0  0  0  0
   27.1580   19.5930   14.8470 C   0  0  0  0  0  0  0  0  0  0  0  0
   27.7460   19.8460   13.7990 O   0  0  0  0  0  0  0  0  0  0  0  0
   26.5020   17.4510   12.6940 C   0  0  0  0  0  0  0  0  0  0  0  0
   28.9540    9.7800    7.4420 C   0  0  0  0  0  0  0  0  0  0  0  0
   27.6860    9.5380    7.1850 N   0  0  0  0  0  0  0  0  0  0  0  0
   24.7464    9.1845    8.6779 H   0  0  0  0  0  0  0  0  0  0  0  0
   23.8606    9.4192    7.1330 H   0  0  0  0  0  0  0  0  0  0  0  0
   25.4708    8.6230    7.1330 H   0  0  0  0  0  0  0  0  0  0  0  0
   25.2864   11.1379    6.4233 H   0  0  0  0  0  0  0  0  0  0  0  0
   25.1424   11.4259    8.2112 H   0  0  0  0  0  0  0  0  0  0  0  0
   27.6522   12.6386    8.4096 H   0  0  0  0  0  0  0  0  0  0  0  0
   31.8792   13.2525   10.5105 H   0  0  0  0  0  0  0  0  0  0  0  0
   29.0403   13.6696    6.4095 H   0  0  0  0  0  0  0  0  0  0  0  0
   27.6558   13.5329    7.5604 H   0  0  0  0  0  0  0  0  0  0  0  0
   28.8006   16.0699    6.2880 H   0  0  0  0  0  0  0  0  0  0  0  0
   27.1423   15.3584    6.1001 H   0  0  0  0  0  0  0  0  0  0  0  0
   27.0753   17.1988    7.5584 H   0  0  0  0  0  0  0  0  0  0  0  0
   29.2641   17.4489    8.3951 H   0  0  0  0  0  0  0  0  0  0  0  0
   26.4129   16.0154    9.7429 H   0  0  0  0  0  0  0  0  0  0  0  0
   24.0683   16.2659   10.6202 H   0  0  0  0  0  0  0  0  0  0  0  0
   22.6914   16.7261   12.6450 H   0  0  0  0  0  0  0  0  0  0  0  0
   23.7465   17.6508   14.6994 H   0  0  0  0  0  0  0  0  0  0  0  0
   27.0841   17.5710   15.4656 H   0  0  0  0  0  0  0  0  0  0  0  0
   24.5567   19.3038   15.7621 H   0  0  0  0  0  0  0  0  0  0  0  0
   24.7539   17.6206   16.3672 H   0  0  0  0  0  0  0  0  0  0  0  0
   25.1101   19.3252   18.1519 H   0  0  0  0  0  0  0  0  0  0  0  0
   26.5832   18.3280   17.8273 H   0  0  0  0  0  0  0  0  0  0  0  0
   27.7985   21.3216   15.7381 H   0  0  0  0  0  0  0  0  0  0  0  0
   27.5812   17.6640   12.7024 H   0  0  0  0  0  0  0  0  0  0  0  0
   29.7788    9.0808    7.2401 H   0  0  0  0  0  0  0  0  0  0  0  0
  1  2  1  0
  2  3  1  0
  3  4  2  0
  4  5  1  0
  5  6  1  0
  6  7  2  0
  6  8  2  0
  6  9  1  0
  9 10  2  0
 10 11  1  0
 11 12  1  0
 12 13  2  0
 13 14  1  0
 14 15  1  0
 15 16  1  0
 16 17  1  0
 17 18  1  0
 18 19  2  0
 18 20  1  0
 20 21  1  0
 21 22  2  0
 22 23  1  0
 23 24  2  0
 24 25  1  0
 25 26  1  0
 26 27  1  0
 27 28  1  0
 28 29  1  0
 29 30  2  0
 29 31  1  0
 31 32  1  0
 32 33  2  0
 25 34  2  0
  5 35  1  0
 35 36  2  0
 36  3  1  0
 13  9  1  0
 34 21  1  0
 17 12  1  0
 32 26  1  0
  1 37  1  0
  1 38  1  0
  1 39  1  0
  2 40  1  0
  2 41  1  0
  4 42  1  0
 10 43  1  0
 14 44  1  0
 14 45  1  0
 15 46  1  0
 15 47  1  0
 16 48  1  0
 17 49  1  6
 20 50  1  0
 22 51  1  0
 23 52  1  0
 24 53  1  0
 26 54  1  1
 27 55  1  0
 27 56  1  0
 28 57  1  0
 28 58  1  0
 31 59  1  0
 34 60  1  0
 35 61  1  0
M  END
>  <meeko>  (618) 
{"is_sidechain": [true], "free_energy": -11.94, "intermolecular_energy": 0.0, "internal_energy": -11.94, "cluster_size": 16, "cluster_id": 1, "rank_in_cluster": 1}

>  <_RMSD_MCS_to_ref>  (618) 
1.7304561898528366

$$$$
ligand
     RDKit          3D

 60 65  0  0  0  0  0  0  0  0999 V2000
   24.8710    9.6160    7.7820 C   0  0  0  0  0  0  0  0  0  0  0  0
   25.4240   10.9650    7.3490 C   0  0  0  0  0  0  0  0  0  0  0  0
   24.9830   11.3380    5.9770 C   0  0  0  0  0  0  0  0  0  0  0  0
   24.0610   12.2910    5.5890 C   0  0  0  0  0  0  0  0  0  0  0  0
   24.0310   12.1920    4.2280 N   0  0  0  0  0  0  0  0  0  0  0  0
   23.2480   13.2520    3.1850 S   0  0  0  0  0  6  0  0  0  0  0  0
   23.5110   12.7690    1.8440 O   0  0  0  0  0  0  0  0  0  0  0  0
   21.9070   13.4000    3.7140 O   0  0  0  0  0  0  0  0  0  0  0  0
   24.1180   14.7840    3.4120 C   0  0  0  0  0  0  0  0  0  0  0  0
   24.0710   15.7530    2.3990 C   0  0  0  0  0  0  0  0  0  0  0  0
   24.7430   16.9700    2.5490 C   0  0  0  0  0  0  0  0  0  0  0  0
   25.4340   17.1540    3.7460 C   0  0  0  0  0  0  0  0  0  0  0  0
   26.1470   18.2530    4.0960 O   0  0  0  0  0  0  0  0  0  0  0  0
   26.6810   18.0760    5.3540 N   0  0  0  0  0  0  0  0  0  0  0  0
   26.2900   16.8650    5.7740 C   0  0  0  0  0  0  0  0  0  0  0  0
   26.5590   16.2570    6.9630 N   0  0  0  0  0  0  0  0  0  0  0  0
   26.0050   16.4360    8.2530 C   0  0  0  0  0  0  0  0  0  0  0  0
   24.8290   15.7090    8.5780 C   0  0  0  0  0  0  0  0  0  0  0  0
   24.2050   15.8330    9.8240 C   0  0  0  0  0  0  0  0  0  0  0  0
   24.7740   16.6980   10.7320 C   0  0  0  0  0  0  0  0  0  0  0  0
   25.9240   17.4270   10.4470 C   0  0  0  0  0  0  0  0  0  0  0  0
   26.5470   17.3060    9.2140 C   0  0  0  0  0  0  0  0  0  0  0  0
   26.3100   18.2560   11.6260 C   0  0  0  0  0  0  0  0  0  0  0  0
   25.2200   18.0010   12.5620 N   0  0  0  0  0  0  0  0  0  0  0  0
   25.2600   18.3920   13.9660 C   0  0  2  0  0  0  0  0  0  0  0  0
   26.0930   19.6490   14.1980 C   0  0  0  0  0  0  0  0  0  0  0  0
   26.0120   20.0460   15.6640 C   0  0  0  0  0  0  0  0  0  0  0  0
   26.4430   18.9090   16.5620 C   0  0  0  0  0  0  0  0  0  0  0  0
   27.0490   19.0960   17.6120 O   0  0  0  0  0  0  0  0  0  0  0  0
   26.1040   17.6440   16.1550 N   0  0  0  0  0  0  0  0  0  0  0  0
   25.7910   17.2660   14.8700 C   0  0  0  0  0  0  0  0  0  0  0  0
   25.9460   16.1010   14.5110 O   0  0  0  0  0  0  0  0  0  0  0  0
   24.3490   17.0270   12.0960 C   0  0  0  0  0  0  0  0  0  0  0  0
   23.4080   16.5230   12.6760 O   0  0  0  0  0  0  0  0  0  0  0  0
   25.4890   16.2300    4.7750 C   0  0  0  0  0  0  0  0  0  0  0  0
   24.8120   15.0050    4.6150 C   0  0  0  0  0  0  0  0  0  0  0  0
   24.9280   11.2540    3.8280 C   0  0  0  0  0  0  0  0  0  0  0  0
   25.5200   10.7100    4.8710 N   0  0  0  0  0  0  0  0  0  0  0  0
   24.8497    9.5640    8.8806 H   0  0  0  0  0  0  0  0  0  0  0  0
   23.8507    9.4948    7.3893 H   0  0  0  0  0  0  0  0  0  0  0  0
   25.5127    8.8135    7.3893 H   0  0  0  0  0  0  0  0  0  0  0  0
   25.0759   11.7338    8.0545 H   0  0  0  0  0  0  0  0  0  0  0  0
   26.5217   10.8947    7.3440 H   0  0  0  0  0  0  0  0  0  0  0  0
   23.4834   12.9732    6.2301 H   0  0  0  0  0  0  0  0  0  0  0  0
   23.5011   15.5540    1.4794 H   0  0  0  0  0  0  0  0  0  0  0  0
   24.7274   17.7410    1.7646 H   0  0  0  0  0  0  0  0  0  0  0  0
   27.2965   15.5396    6.9146 H   0  0  0  0  0  0  0  0  0  0  0  0
   24.3966   15.0293    7.8289 H   0  0  0  0  0  0  0  0  0  0  0  0
   23.2967   15.2627   10.0685 H   0  0  0  0  0  0  0  0  0  0  0  0
   27.4554   17.8847    8.9908 H   0  0  0  0  0  0  0  0  0  0  0  0
   27.2751   17.9309   12.0417 H   0  0  0  0  0  0  0  0  0  0  0  0
   26.4433   19.3216   11.3880 H   0  0  0  0  0  0  0  0  0  0  0  0
   24.2152   18.6051   14.2362 H   0  0  0  0  0  0  0  0  0  0  0  0
   27.1409   19.4495   13.9293 H   0  0  0  0  0  0  0  0  0  0  0  0
   25.7045   20.4673   13.5740 H   0  0  0  0  0  0  0  0  0  0  0  0
   26.6695   20.9104   15.8387 H   0  0  0  0  0  0  0  0  0  0  0  0
   24.9678   20.2996   15.8994 H   0  0  0  0  0  0  0  0  0  0  0  0
   26.0817   16.9101   16.8774 H   0  0  0  0  0  0  0  0  0  0  0  0
   24.8258   14.2431    5.4083 H   0  0  0  0  0  0  0  0  0  0  0  0
   25.1313   10.9864    2.7806 H   0  0  0  0  0  0  0  0  0  0  0  0
  1  2  1  0
  2  3  1  0
  3  4  2  0
  4  5  1  0
  5  6  1  0
  6  7  2  0
  6  8  2  0
  6  9  1  0
  9 10  2  0
 10 11  1  0
 11 12  2  0
 12 13  1  0
 13 14  1  0
 14 15  2  0
 15 16  1  0
 16 17  1  0
 17 18  2  0
 18 19  1  0
 19 20  2  0
 20 21  1  0
 21 22  2  0
 21 23  1  0
 23 24  1  0
 24 25  1  0
 25 26  1  0
 26 27  1  0
 27 28  1  0
 28 29  2  0
 28 30  1  0
 30 31  1  0
 31 32  2  0
 24 33  1  0
 33 34  2  0
 15 35  1  0
 35 36  2  0
  5 37  1  0
 37 38  2  0
 38  3  1  0
 36  9  1  0
 35 12  1  0
 22 17  1  0
 31 25  1  0
 33 20  1  0
  1 39  1  0
  1 40  1  0
  1 41  1  0
  2 42  1  0
  2 43  1  0
  4 44  1  0
 10 45  1  0
 11 46  1  0
 16 47  1  0
 18 48  1  0
 19 49  1  0
 22 50  1  0
 23 51  1  0
 23 52  1  0
 25 53  1  1
 26 54  1  0
 26 55  1  0
 27 56  1  0
 27 57  1  0
 30 58  1  0
 36 59  1  0
 37 60  1  0
M  END
>  <meeko>  (619) 
{"is_sidechain": [true], "free_energy": -11.94, "intermolecular_energy": 0.0, "internal_energy": -11.94, "cluster_size": 12, "cluster_id": 1, "rank_in_cluster": 1}

>  <_RMSD_MCS_to_ref>  (619) 
1.8685230204034897

$$$$
ligand
     RDKit          3D

 62 67  0  0  0  0  0  0  0  0999 V2000
   24.8710    9.6170    7.7810 C   0  0  0  0  0  0  0  0  0  0  0  0
   25.4240   10.9640    7.3500 C   0  0  0  0  0  0  0  0  0  0  0  0
   26.8170   11.1870    7.8270 C   0  0  0  0  0  0  0  0  0  0  0  0
   27.3000   12.1780    8.6620 C   0  0  0  0  0  0  0  0  0  0  0  0
   28.6370   11.9190    8.7420 N   0  0  0  0  0  0  0  0  0  0  0  0
   29.7790   12.8620    9.5430 S   0  0  0  0  0  6  0  0  0  0  0  0
   31.0510   12.3330    9.0920 O   0  0  0  0  0  0  0  0  0  0  0  0
   29.3830   12.8030   10.9390 O   0  0  0  0  0  0  0  0  0  0  0  0
   29.6180   14.3860    8.9590 O   0  0  0  0  0  0  0  0  0  0  0  0
   29.0480   14.5480    7.7160 C   0  0  0  0  0  0  0  0  0  0  0  0
   27.7530   15.0780    7.6420 C   0  0  0  0  0  0  0  0  0  0  0  0
   26.9850   15.4590    8.8280 C   0  0  0  0  0  0  0  0  0  0  0  0
   25.7670   14.8010    9.1240 C   0  0  0  0  0  0  0  0  0  0  0  0
   25.0300   15.1170   10.2670 C   0  0  0  0  0  0  0  0  0  0  0  0
   25.5440   16.0890   11.1020 C   0  0  0  0  0  0  0  0  0  0  0  0
   26.7400   16.7530   10.8400 C   0  0  0  0  0  0  0  0  0  0  0  0
   27.4660   16.4580    9.6960 C   0  0  0  0  0  0  0  0  0  0  0  0
   27.0310   17.7280   11.9320 C   0  0  0  0  0  0  0  0  0  0  0  0
   25.9340   17.4960   12.8620 N   0  0  0  0  0  0  0  0  0  0  0  0
   25.6800   18.3230   14.0330 C   0  0  1  0  0  0  0  0  0  0  0  0
   26.3250   17.7580   15.2950 C   0  0  0  0  0  0  0  0  0  0  0  0
   25.9400   18.6200   16.4880 C   0  0  0  0  0  0  0  0  0  0  0  0
   26.3160   20.0650   16.2600 C   0  0  0  0  0  0  0  0  0  0  0  0
   26.6930   20.7970   17.1710 O   0  0  0  0  0  0  0  0  0  0  0  0
   26.1940   20.5380   14.9780 N   0  0  0  0  0  0  0  0  0  0  0  0
   26.1500   19.7730   13.8340 C   0  0  0  0  0  0  0  0  0  0  0  0
   26.4750   20.2580   12.7520 O   0  0  0  0  0  0  0  0  0  0  0  0
   25.0040   16.5980   12.3660 C   0  0  0  0  0  0  0  0  0  0  0  0
   23.9460   16.2580   12.8580 O   0  0  0  0  0  0  0  0  0  0  0  0
   27.2280   15.2200    6.3670 C   0  0  0  0  0  0  0  0  0  0  0  0
   27.8740   14.8730    5.2280 N   0  0  0  0  0  0  0  0  0  0  0  0
   29.1050   14.3450    5.3250 C   0  0  0  0  0  0  0  0  0  0  0  0
   29.7660   13.9750    4.1630 C   0  0  0  0  0  0  0  0  0  0  0  0
   31.0440   13.4100    4.1870 C   0  0  0  0  0  0  0  0  0  0  0  0
   31.6820   13.2020    5.4020 C   0  0  0  0  0  0  0  0  0  0  0  0
   31.0420   13.5660    6.5860 C   0  0  0  0  0  0  0  0  0  0  0  0
   29.7520   14.1470    6.5620 C   0  0  0  0  0  0  0  0  0  0  0  0
   28.9400   10.8650    7.9430 C   0  0  0  0  0  0  0  0  0  0  0  0
   27.8460   10.3660    7.4060 N   0  0  0  0  0  0  0  0  0  0  0  0
   24.8493    9.5641    8.8795 H   0  0  0  0  0  0  0  0  0  0  0  0
   23.8507    9.4967    7.3878 H   0  0  0  0  0  0  0  0  0  0  0  0
   25.5124    8.8145    7.3878 H   0  0  0  0  0  0  0  0  0  0  0  0
   25.4150   11.0139    6.2512 H   0  0  0  0  0  0  0  0  0  0  0  0
   24.7891   11.7442    7.7952 H   0  0  0  0  0  0  0  0  0  0  0  0
   26.7366   12.9876    9.1489 H   0  0  0  0  0  0  0  0  0  0  0  0
   25.3936   14.0250    8.4396 H   0  0  0  0  0  0  0  0  0  0  0  0
   24.0791   14.6123   10.4929 H   0  0  0  0  0  0  0  0  0  0  0  0
   28.3998   16.9941    9.4709 H   0  0  0  0  0  0  0  0  0  0  0  0
   28.0027   17.5188   12.4032 H   0  0  0  0  0  0  0  0  0  0  0  0
   27.0981   18.7693   11.5839 H   0  0  0  0  0  0  0  0  0  0  0  0
   24.5876   18.3170   14.1620 H   0  0  0  0  0  0  0  0  0  0  0  0
   25.9736   16.7284   15.4574 H   0  0  0  0  0  0  0  0  0  0  0  0
   27.4190   17.7570   15.1799 H   0  0  0  0  0  0  0  0  0  0  0  0
   24.8533   18.5521   16.6442 H   0  0  0  0  0  0  0  0  0  0  0  0
   26.4819   18.2538   17.3724 H   0  0  0  0  0  0  0  0  0  0  0  0
   26.1294   21.5592   14.8605 H   0  0  0  0  0  0  0  0  0  0  0  0
   26.2172   15.6437    6.2737 H   0  0  0  0  0  0  0  0  0  0  0  0
   29.2695   14.1309    3.1939 H   0  0  0  0  0  0  0  0  0  0  0  0
   31.5423   13.1313    3.2468 H   0  0  0  0  0  0  0  0  0  0  0  0
   32.6858   12.7530    5.4306 H   0  0  0  0  0  0  0  0  0  0  0  0
   31.5456   13.3996    7.5497 H   0  0  0  0  0  0  0  0  0  0  0  0
   29.9561   10.4815    7.7684 H   0  0  0  0  0  0  0  0  0  0  0  0
  1  2  1  0
  2  3  1  0
  3  4  2  0
  4  5  1  0
  5  6  1  0
  6  7  2  0
  6  8  2  0
  6  9  1  0
  9 10  1  0
 10 11  1  0
 11 12  1  0
 12 13  2  0
 13 14  1  0
 14 15  2  0
 15 16  1  0
 16 17  2  0
 16 18  1  0
 18 19  1  0
 19 20  1  0
 20 21  1  0
 21 22  1  0
 22 23  1  0
 23 24  2  0
 23 25  1  0
 25 26  1  0
 26 27  2  0
 19 28  1  0
 28 29  2  0
 11 30  2  0
 30 31  1  0
 31 32  2  0
 32 33  1  0
 33 34  2  0
 34 35  1  0
 35 36  2  0
 36 37  1  0
  5 38  1  0
 38 39  2  0
 39  3  1  0
 37 10  2  0
 17 12  1  0
 26 20  1  0
 37 32  1  0
 28 15  1  0
  1 40  1  0
  1 41  1  0
  1 42  1  0
  2 43  1  0
  2 44  1  0
  4 45  1  0
 13 46  1  0
 14 47  1  0
 17 48  1  0
 18 49  1  0
 18 50  1  0
 20 51  1  1
 21 52  1  0
 21 53  1  0
 22 54  1  0
 22 55  1  0
 25 56  1  0
 30 57  1  0
 33 58  1  0
 34 59  1  0
 35 60  1  0
 36 61  1  0
 38 62  1  0
M  END
>  <meeko>  (620) 
{"is_sidechain": [true], "free_energy": -11.94, "intermolecular_energy": 0.0, "internal_energy": -11.94, "cluster_size": 5, "cluster_id": 1, "rank_in_cluster": 1}

>  <_RMSD_MCS_to_ref>  (620) 
1.4042067061811845

$$$$
ligand
     RDKit          3D

 48 51  0  0  0  0  0  0  0  0999 V2000
   24.8710    9.6160    7.7820 C   0  0  0  0  0  0  0  0  0  0  0  0
   25.4240   10.9650    7.3490 C   0  0  0  0  0  0  0  0  0  0  0  0
   26.7830   11.2340    7.8970 C   0  0  0  0  0  0  0  0  0  0  0  0
   27.1240   11.9860    9.0020 C   0  0  0  0  0  0  0  0  0  0  0  0
   28.4840   11.8960    9.0640 N   0  0  0  0  0  0  0  0  0  0  0  0
   29.4760   12.7440   10.1250 S   0  0  0  0  0  6  0  0  0  0  0  0
   29.1330   12.2050   11.4280 O   0  0  0  0  0  0  0  0  0  0  0  0
   30.8180   12.6020    9.5900 O   0  0  0  0  0  0  0  0  0  0  0  0
   29.0550   14.3250   10.1120 O   0  0  0  0  0  0  0  0  0  0  0  0
   28.0290   14.7680    9.2920 C   0  0  0  0  0  0  0  0  0  0  0  0
   28.1300   14.6870    7.9570 C   0  0  0  0  0  0  0  0  0  0  0  0
   26.9600   15.2010    7.1960 C   0  0  0  0  0  0  0  0  0  0  0  0
   25.8960   15.7460    7.7020 N   0  0  0  0  0  0  0  0  0  0  0  0
   25.8680   15.8510    9.0650 C   0  0  0  0  0  0  0  0  0  0  0  0
   24.9720   16.4430    9.9200 C   0  0  0  0  0  0  0  0  0  0  0  0
   25.5070   16.2750   11.2180 C   0  0  0  0  0  0  0  0  0  0  0  0
   24.9610   16.8430   12.4620 C   0  0  0  0  0  0  0  0  0  0  0  0
   23.7990   17.2270   12.5560 O   0  0  0  0  0  0  0  0  0  0  0  0
   25.8720   16.9420   13.4960 N   0  0  0  0  0  0  0  0  0  0  0  0
   25.6860   17.9490   14.5270 C   0  0  1  0  0  0  0  0  0  0  0  0
   26.3120   17.5250   15.8470 C   0  0  0  0  0  0  0  0  0  0  0  0
   26.0930   18.6130   16.8860 C   0  0  0  0  0  0  0  0  0  0  0  0
   26.6380   19.9390   16.4120 C   0  0  0  0  0  0  0  0  0  0  0  0
   27.1020   20.7730   17.1850 O   0  0  0  0  0  0  0  0  0  0  0  0
   26.5550   20.1940   15.0670 N   0  0  0  0  0  0  0  0  0  0  0  0
   26.3300   19.2690   14.0720 C   0  0  0  0  0  0  0  0  0  0  0  0
   26.6200   19.5250   12.9040 O   0  0  0  0  0  0  0  0  0  0  0  0
   26.6460   15.5530   11.1900 N   0  0  0  0  0  0  0  0  0  0  0  0
   26.8920   15.3530    9.8680 N   0  0  0  0  0  0  0  0  0  0  0  0
   28.9340   11.2060    7.9860 C   0  0  0  0  0  0  0  0  0  0  0  0
   27.9200   10.7200    7.2960 N   0  0  0  0  0  0  0  0  0  0  0  0
   24.8497    9.5640    8.8806 H   0  0  0  0  0  0  0  0  0  0  0  0
   23.8507    9.4948    7.3893 H   0  0  0  0  0  0  0  0  0  0  0  0
   25.5127    8.8135    7.3893 H   0  0  0  0  0  0  0  0  0  0  0  0
   25.4772   10.9870    6.2505 H   0  0  0  0  0  0  0  0  0  0  0  0
   24.7494   11.7408    7.7401 H   0  0  0  0  0  0  0  0  0  0  0  0
   26.4522   12.5337    9.6792 H   0  0  0  0  0  0  0  0  0  0  0  0
   29.0173   14.2691    7.4591 H   0  0  0  0  0  0  0  0  0  0  0  0
   27.0001   15.1108    6.1004 H   0  0  0  0  0  0  0  0  0  0  0  0
   24.0310   16.9450    9.6507 H   0  0  0  0  0  0  0  0  0  0  0  0
   26.6800   16.3044   13.5359 H   0  0  0  0  0  0  0  0  0  0  0  0
   24.6045   18.0768   14.6824 H   0  0  0  0  0  0  0  0  0  0  0  0
   25.8445   16.5906   16.1908 H   0  0  0  0  0  0  0  0  0  0  0  0
   27.3912   17.3655   15.7058 H   0  0  0  0  0  0  0  0  0  0  0  0
   25.0144   18.7157   17.0759 H   0  0  0  0  0  0  0  0  0  0  0  0
   26.6237   18.3274   17.8062 H   0  0  0  0  0  0  0  0  0  0  0  0
   26.6725   21.1739   14.7721 H   0  0  0  0  0  0  0  0  0  0  0  0
   29.9939   11.0710    7.7244 H   0  0  0  0  0  0  0  0  0  0  0  0
  1  2  1  0
  2  3  1  0
  3  4  2  0
  4  5  1  0
  5  6  1  0
  6  7  2  0
  6  8  2  0
  6  9  1  0
  9 10  1  0
 10 11  2  0
 11 12  1  0
 12 13  2  0
 13 14  1  0
 14 15  2  0
 15 16  1  0
 16 17  1  0
 17 18  2  0
 17 19  1  0
 19 20  1  0
 20 21  1  0
 21 22  1  0
 22 23  1  0
 23 24  2  0
 23 25  1  0
 25 26  1  0
 26 27  2  0
 16 28  2  0
 28 29  1  0
  5 30  1  0
 30 31  2  0
 31  3  1  0
 29 10  1  0
 29 14  1  0
 26 20  1  0
  1 32  1  0
  1 33  1  0
  1 34  1  0
  2 35  1  0
  2 36  1  0
  4 37  1  0
 11 38  1  0
 12 39  1  0
 15 40  1  0
 19 41  1  0
 20 42  1  1
 21 43  1  0
 21 44  1  0
 22 45  1  0
 22 46  1  0
 25 47  1  0
 30 48  1  0
M  END
>  <meeko>  (621) 
{"is_sidechain": [true], "free_energy": -11.93, "intermolecular_energy": 0.0, "internal_energy": -11.93, "cluster_size": 17, "cluster_id": 1, "rank_in_cluster": 1}

>  <_RMSD_MCS_to_ref>  (621) 
1.0983786030124383

$$$$
ligand
     RDKit          3D

 50 54  0  0  0  0  0  0  0  0999 V2000
   24.8710    9.6160    7.7820 C   0  0  0  0  0  0  0  0  0  0  0  0
   25.4240   10.9650    7.3490 C   0  0  0  0  0  0  0  0  0  0  0  0
   26.7850   11.2370    7.8870 C   0  0  0  0  0  0  0  0  0  0  0  0
   27.1410   11.9300    9.0280 C   0  0  0  0  0  0  0  0  0  0  0  0
   28.5040   11.8510    9.0600 N   0  0  0  0  0  0  0  0  0  0  0  0
   29.5200   12.6760   10.1250 S   0  0  0  0  0  6  0  0  0  0  0  0
   29.1470   12.1760   11.4350 O   0  0  0  0  0  0  0  0  0  0  0  0
   30.8610   12.4720    9.6040 O   0  0  0  0  0  0  0  0  0  0  0  0
   29.1620   14.2700   10.0680 O   0  0  0  0  0  0  0  0  0  0  0  0
   28.1420   14.6810    9.2510 C   0  0  0  0  0  0  0  0  0  0  0  0
   28.2470   14.6030    7.8620 C   0  0  0  0  0  0  0  0  0  0  0  0
   27.1990   15.0370    7.0460 C   0  0  0  0  0  0  0  0  0  0  0  0
   26.0240   15.5730    7.5980 C   0  0  0  0  0  0  0  0  0  0  0  0
   25.9140   15.6770    8.9970 C   0  0  0  0  0  0  0  0  0  0  0  0
   26.9770   15.2360    9.7790 C   0  0  0  0  0  0  0  0  0  0  0  0
   26.7080   15.4030   11.1050 O   0  0  0  0  0  0  0  0  0  0  0  0
   25.4650   15.9530   11.1810 C   0  0  0  0  0  0  0  0  0  0  0  0
   24.7380   16.3130   12.2990 C   0  0  0  0  0  0  0  0  0  0  0  0
   25.3570   16.0670   13.9340 S   0  0  0  0  0  0  0  0  0  0  0  0
   25.4280   17.8050   14.4990 C   0  0  1  0  0  0  0  0  0  0  0  0
   25.7810   17.8070   15.9860 C   0  0  0  0  0  0  0  0  0  0  0  0
   25.8560   19.2430   16.4850 C   0  0  0  0  0  0  0  0  0  0  0  0
   26.8600   20.0410   15.6910 C   0  0  0  0  0  0  0  0  0  0  0  0
   27.4370   21.0210   16.1540 O   0  0  0  0  0  0  0  0  0  0  0  0
   27.0570   19.6530   14.3900 N   0  0  0  0  0  0  0  0  0  0  0  0
   26.4720   18.6030   13.7150 C   0  0  0  0  0  0  0  0  0  0  0  0
   26.7720   18.4020   12.5390 O   0  0  0  0  0  0  0  0  0  0  0  0
   23.5000   16.8310   12.1110 N   0  0  0  0  0  0  0  0  0  0  0  0
   23.0640   16.9790   10.8430 C   0  0  0  0  0  0  0  0  0  0  0  0
   23.7050   16.6660    9.7030 N   0  0  0  0  0  0  0  0  0  0  0  0
   24.9350   16.1400    9.9140 C   0  0  0  0  0  0  0  0  0  0  0  0
   28.9350   11.1810    7.9600 C   0  0  0  0  0  0  0  0  0  0  0  0
   27.9130   10.7760    7.2360 N   0  0  0  0  0  0  0  0  0  0  0  0
   24.8497    9.5640    8.8806 H   0  0  0  0  0  0  0  0  0  0  0  0
   23.8507    9.4948    7.3893 H   0  0  0  0  0  0  0  0  0  0  0  0
   25.5127    8.8135    7.3893 H   0  0  0  0  0  0  0  0  0  0  0  0
   25.4706   10.9881    6.2502 H   0  0  0  0  0  0  0  0  0  0  0  0
   24.7522   11.7389    7.7486 H   0  0  0  0  0  0  0  0  0  0  0  0
   26.4771   12.4316    9.7475 H   0  0  0  0  0  0  0  0  0  0  0  0
   29.1618   14.1968    7.4057 H   0  0  0  0  0  0  0  0  0  0  0  0
   27.2959   14.9575    5.9532 H   0  0  0  0  0  0  0  0  0  0  0  0
   25.2025   15.9063    6.9468 H   0  0  0  0  0  0  0  0  0  0  0  0
   24.4515   18.2823   14.3296 H   0  0  0  0  0  0  0  0  0  0  0  0
   25.0073   17.2631   16.5477 H   0  0  0  0  0  0  0  0  0  0  0  0
   26.7537   17.3150   16.1338 H   0  0  0  0  0  0  0  0  0  0  0  0
   24.8653   19.7105   16.3850 H   0  0  0  0  0  0  0  0  0  0  0  0
   26.1728   19.2312   17.5383 H   0  0  0  0  0  0  0  0  0  0  0  0
   27.7270   20.2179   13.8489 H   0  0  0  0  0  0  0  0  0  0  0  0
   22.0584   17.4095   10.7270 H   0  0  0  0  0  0  0  0  0  0  0  0
   29.9909   11.0018    7.7091 H   0  0  0  0  0  0  0  0  0  0  0  0
  1  2  1  0
  2  3  1  0
  3  4  2  0
  4  5  1  0
  5  6  1  0
  6  7  2  0
  6  8  2  0
  6  9  1  0
  9 10  1  0
 10 11  2  0
 11 12  1  0
 12 13  2  0
 13 14  1  0
 14 15  2  0
 15 16  1  0
 16 17  1  0
 17 18  2  0
 18 19  1  0
 19 20  1  0
 20 21  1  0
 21 22  1  0
 22 23  1  0
 23 24  2  0
 23 25  1  0
 25 26  1  0
 26 27  2  0
 18 28  1  0
 28 29  2  0
 29 30  1  0
 30 31  2  0
  5 32  1  0
 32 33  2  0
 33  3  1  0
 15 10  1  0
 31 17  1  0
 31 14  1  0
 26 20  1  0
  1 34  1  0
  1 35  1  0
  1 36  1  0
  2 37  1  0
  2 38  1  0
  4 39  1  0
 11 40  1  0
 12 41  1  0
 13 42  1  0
 20 43  1  1
 21 44  1  0
 21 45  1  0
 22 46  1  0
 22 47  1  0
 25 48  1  0
 29 49  1  0
 32 50  1  0
M  END
>  <meeko>  (622) 
{"is_sidechain": [true], "free_energy": -11.93, "intermolecular_energy": 0.0, "internal_energy": -11.93, "cluster_size": 14, "cluster_id": 1, "rank_in_cluster": 1}

>  <_RMSD_MCS_to_ref>  (622) 
1.5472189163140417

$$$$
ligand
     RDKit          3D

 60 65  0  0  0  0  0  0  0  0999 V2000
   24.8540    9.4020    7.6050 C   0  0  0  0  0  0  0  0  0  0  0  0
   25.5230   10.7550    7.4270 C   0  0  0  0  0  0  0  0  0  0  0  0
   25.0970   11.4260    6.1690 C   0  0  0  0  0  0  0  0  0  0  0  0
   25.5470   12.6130    5.6240 C   0  0  0  0  0  0  0  0  0  0  0  0
   24.8390   12.7360    4.4630 N   0  0  0  0  0  0  0  0  0  0  0  0
   25.0440   13.9390    3.3080 S   0  0  0  0  0  6  0  0  0  0  0  0
   26.3430   13.7110    2.7060 O   0  0  0  0  0  0  0  0  0  0  0  0
   23.8190   13.9170    2.5290 O   0  0  0  0  0  0  0  0  0  0  0  0
   25.1040   15.4810    4.1470 C   0  0  0  0  0  0  0  0  0  0  0  0
   25.4840   16.6290    3.4260 C   0  0  0  0  0  0  0  0  0  0  0  0
   25.5400   17.8830    4.0470 C   0  0  0  0  0  0  0  0  0  0  0  0
   25.2200   18.0370    5.4010 C   0  0  0  0  0  0  0  0  0  0  0  0
   24.8510   16.8760    6.0710 C   0  0  0  0  0  0  0  0  0  0  0  0
   24.4890   16.7600    7.3800 O   0  0  0  0  0  0  0  0  0  0  0  0
   24.2100   15.4300    7.5380 C   0  0  0  0  0  0  0  0  0  0  0  0
   23.8230   14.9510    8.7310 N   0  0  0  0  0  0  0  0  0  0  0  0
   23.8770   15.5120   10.0210 C   0  0  0  0  0  0  0  0  0  0  0  0
   22.8610   15.3630   10.9920 C   0  0  0  0  0  0  0  0  0  0  0  0
   22.9460   15.9750   12.2490 C   0  0  0  0  0  0  0  0  0  0  0  0
   24.0570   16.7470   12.5080 C   0  0  0  0  0  0  0  0  0  0  0  0
   25.0730   16.9270   11.5770 C   0  0  0  0  0  0  0  0  0  0  0  0
   24.9920   16.3200   10.3330 C   0  0  0  0  0  0  0  0  0  0  0  0
   26.1420   17.7980   12.1470 C   0  0  0  0  0  0  0  0  0  0  0  0
   25.5930   18.1640   13.4470 N   0  0  0  0  0  0  0  0  0  0  0  0
   26.3720   18.8090   14.4960 C   0  0  2  0  0  0  0  0  0  0  0  0
   26.1410   18.1770   15.8670 C   0  0  0  0  0  0  0  0  0  0  0  0
   27.0520   18.8400   16.8890 C   0  0  0  0  0  0  0  0  0  0  0  0
   26.8460   20.3370   16.9120 C   0  0  0  0  0  0  0  0  0  0  0  0
   26.9130   20.9930   17.9480 O   0  0  0  0  0  0  0  0  0  0  0  0
   26.5940   20.9410   15.7070 N   0  0  0  0  0  0  0  0  0  0  0  0
   26.0890   20.3180   14.5880 C   0  0  0  0  0  0  0  0  0  0  0  0
   25.4550   20.9590   13.7540 O   0  0  0  0  0  0  0  0  0  0  0  0
   24.4080   17.4960   13.7190 C   0  0  0  0  0  0  0  0  0  0  0  0
   23.7600   17.5070   14.7480 O   0  0  0  0  0  0  0  0  0  0  0  0
   24.3970   14.7120    6.4490 N   0  0  0  0  0  0  0  0  0  0  0  0
   24.7870   15.6170    5.4990 C   0  0  0  0  0  0  0  0  0  0  0  0
   24.0080   11.6690    4.3310 C   0  0  0  0  0  0  0  0  0  0  0  0
   24.1360   10.8530    5.3590 N   0  0  0  0  0  0  0  0  0  0  0  0
   24.7464    9.1845    8.6779 H   0  0  0  0  0  0  0  0  0  0  0  0
   23.8606    9.4192    7.1330 H   0  0  0  0  0  0  0  0  0  0  0  0
   25.4708    8.6230    7.1330 H   0  0  0  0  0  0  0  0  0  0  0  0
   25.2576   11.3974    8.2796 H   0  0  0  0  0  0  0  0  0  0  0  0
   26.6097   10.5926    7.3744 H   0  0  0  0  0  0  0  0  0  0  0  0
   26.3022   13.3010    6.0317 H   0  0  0  0  0  0  0  0  0  0  0  0
   25.7405   16.5397    2.3601 H   0  0  0  0  0  0  0  0  0  0  0  0
   25.8410   18.7632    3.4599 H   0  0  0  0  0  0  0  0  0  0  0  0
   25.2581   19.0149    5.9032 H   0  0  0  0  0  0  0  0  0  0  0  0
   23.4144   14.0061    8.6963 H   0  0  0  0  0  0  0  0  0  0  0  0
   21.9794   14.7497   10.7541 H   0  0  0  0  0  0  0  0  0  0  0  0
   22.1546   15.8440   13.0017 H   0  0  0  0  0  0  0  0  0  0  0  0
   25.7924   16.4672    9.5929 H   0  0  0  0  0  0  0  0  0  0  0  0
   27.0876   17.2467   12.2560 H   0  0  0  0  0  0  0  0  0  0  0  0
   26.3845   18.6646   11.5143 H   0  0  0  0  0  0  0  0  0  0  0  0
   27.4231   18.6584   14.2089 H   0  0  0  0  0  0  0  0  0  0  0  0
   25.0915   18.3188   16.1643 H   0  0  0  0  0  0  0  0  0  0  0  0
   26.3652   17.1012   15.8181 H   0  0  0  0  0  0  0  0  0  0  0  0
   26.8304   18.4316   17.8861 H   0  0  0  0  0  0  0  0  0  0  0  0
   28.0963   18.6355   16.6105 H   0  0  0  0  0  0  0  0  0  0  0  0
   26.8003   21.9474   15.6327 H   0  0  0  0  0  0  0  0  0  0  0  0
   23.3239   11.5083    3.4847 H   0  0  0  0  0  0  0  0  0  0  0  0
  1  2  1  0
  2  3  1  0
  3  4  2  0
  4  5  1  0
  5  6  1  0
  6  7  2  0
  6  8  2  0
  6  9  1  0
  9 10  2  0
 10 11  1  0
 11 12  2  0
 12 13  1  0
 13 14  1  0
 14 15  1  0
 15 16  1  0
 16 17  1  0
 17 18  2  0
 18 19  1  0
 19 20  2  0
 20 21  1  0
 21 22  2  0
 21 23  1  0
 23 24  1  0
 24 25  1  0
 25 26  1  0
 26 27  1  0
 27 28  1  0
 28 29  2  0
 28 30  1  0
 30 31  1  0
 31 32  2  0
 24 33  1  0
 33 34  2  0
 15 35  2  0
 35 36  1  0
  5 37  1  0
 37 38  2  0
 38  3  1  0
 36  9  1  0
 36 13  2  0
 22 17  1  0
 31 25  1  0
 33 20  1  0
  1 39  1  0
  1 40  1  0
  1 41  1  0
  2 42  1  0
  2 43  1  0
  4 44  1  0
 10 45  1  0
 11 46  1  0
 12 47  1  0
 16 48  1  0
 18 49  1  0
 19 50  1  0
 22 51  1  0
 23 52  1  0
 23 53  1  0
 25 54  1  6
 26 55  1  0
 26 56  1  0
 27 57  1  0
 27 58  1  0
 30 59  1  0
 37 60  1  0
M  END
>  <meeko>  (623) 
{"is_sidechain": [true], "free_energy": -11.92, "intermolecular_energy": 0.0, "internal_energy": -11.92, "cluster_size": 10, "cluster_id": 1, "rank_in_cluster": 1}

>  <_RMSD_MCS_to_ref>  (623) 
0.9587825613766646

$$$$
ligand
     RDKit          3D

 56 60  0  0  0  0  0  0  0  0999 V2000
   24.8710    9.6170    7.7820 C   0  0  0  0  0  0  0  0  0  0  0  0
   25.4240   10.9640    7.3490 C   0  0  0  0  0  0  0  0  0  0  0  0
   26.5850   11.3890    8.1800 C   0  0  0  0  0  0  0  0  0  0  0  0
   27.7740   11.9700    7.7840 C   0  0  0  0  0  0  0  0  0  0  0  0
   28.4790   12.1100    8.9450 N   0  0  0  0  0  0  0  0  0  0  0  0
   29.9280   12.9470    9.1420 S   0  0  0  0  0  6  0  0  0  0  0  0
   30.9150   12.1750    8.4090 O   0  0  0  0  0  0  0  0  0  0  0  0
   30.0420   13.1250   10.5790 O   0  0  0  0  0  0  0  0  0  0  0  0
   29.7290   14.4250    8.4710 O   0  0  0  0  0  0  0  0  0  0  0  0
   29.1080   14.5460    7.2520 C   0  0  0  0  0  0  0  0  0  0  0  0
   29.8630   14.3150    6.0970 C   0  0  0  0  0  0  0  0  0  0  0  0
   29.2790   14.4630    4.8420 C   0  0  0  0  0  0  0  0  0  0  0  0
   27.9500   14.8620    4.7410 C   0  0  0  0  0  0  0  0  0  0  0  0
   27.2060   15.1190    5.8960 C   0  0  0  0  0  0  0  0  0  0  0  0
   27.7690   14.9750    7.1780 C   0  0  0  0  0  0  0  0  0  0  0  0
   26.9510   15.2650    8.3740 C   0  0  0  0  0  0  0  0  0  0  0  0
   25.7320   14.5740    8.6150 C   0  0  0  0  0  0  0  0  0  0  0  0
   24.9320   14.8510    9.7330 C   0  0  0  0  0  0  0  0  0  0  0  0
   25.3800   15.8210   10.6050 C   0  0  0  0  0  0  0  0  0  0  0  0
   26.5690   16.4890   10.3990 C   0  0  0  0  0  0  0  0  0  0  0  0
   27.3730   16.2360    9.3030 C   0  0  0  0  0  0  0  0  0  0  0  0
   26.7520   17.4200   11.5100 C   0  0  0  0  0  0  0  0  0  0  0  0
   27.7010   18.1730   11.6180 O   0  0  0  0  0  0  0  0  0  0  0  0
   25.6850   17.2470   12.3480 N   0  0  0  0  0  0  0  0  0  0  0  0
   25.4400   18.0110   13.5600 C   0  0  1  0  0  0  0  0  0  0  0  0
   26.2630   17.5410   14.7580 C   0  0  0  0  0  0  0  0  0  0  0  0
   25.8960   18.3730   15.9780 C   0  0  0  0  0  0  0  0  0  0  0  0
   26.0930   19.8480   15.7160 C   0  0  0  0  0  0  0  0  0  0  0  0
   26.3550   20.6430   16.6120 O   0  0  0  0  0  0  0  0  0  0  0  0
   25.9100   20.2710   14.4230 N   0  0  0  0  0  0  0  0  0  0  0  0
   25.6820   19.5010   13.3040 C   0  0  0  0  0  0  0  0  0  0  0  0
   25.6220   20.0280   12.1950 O   0  0  0  0  0  0  0  0  0  0  0  0
   24.8040   16.3230   11.8520 C   0  0  0  0  0  0  0  0  0  0  0  0
   23.7600   15.9270   12.3340 O   0  0  0  0  0  0  0  0  0  0  0  0
   27.7140   11.6940    9.9860 C   0  0  0  0  0  0  0  0  0  0  0  0
   26.5530   11.2480    9.5540 N   0  0  0  0  0  0  0  0  0  0  0  0
   24.8498    9.5653    8.8806 H   0  0  0  0  0  0  0  0  0  0  0  0
   23.8505    9.4962    7.3895 H   0  0  0  0  0  0  0  0  0  0  0  0
   25.5122    8.8140    7.3895 H   0  0  0  0  0  0  0  0  0  0  0  0
   25.7462   10.8939    6.2996 H   0  0  0  0  0  0  0  0  0  0  0  0
   24.6273   11.7121    7.4740 H   0  0  0  0  0  0  0  0  0  0  0  0
   28.0821   12.2545    6.7671 H   0  0  0  0  0  0  0  0  0  0  0  0
   30.9184   14.0163    6.1806 H   0  0  0  0  0  0  0  0  0  0  0  0
   29.8664   14.2651    3.9332 H   0  0  0  0  0  0  0  0  0  0  0  0
   27.4842   14.9753    3.7510 H   0  0  0  0  0  0  0  0  0  0  0  0
   26.1583   15.4406    5.8011 H   0  0  0  0  0  0  0  0  0  0  0  0
   25.4071   13.8000    7.9042 H   0  0  0  0  0  0  0  0  0  0  0  0
   23.9864   14.3167    9.9072 H   0  0  0  0  0  0  0  0  0  0  0  0
   28.3186   16.7795    9.1601 H   0  0  0  0  0  0  0  0  0  0  0  0
   24.3858   17.8406   13.8241 H   0  0  0  0  0  0  0  0  0  0  0  0
   26.0482   16.4809   14.9581 H   0  0  0  0  0  0  0  0  0  0  0  0
   27.3343   17.6610   14.5389 H   0  0  0  0  0  0  0  0  0  0  0  0
   24.8410   18.1918   16.2311 H   0  0  0  0  0  0  0  0  0  0  0  0
   26.5521   18.0775   16.8100 H   0  0  0  0  0  0  0  0  0  0  0  0
   25.9478   21.2890   14.2710 H   0  0  0  0  0  0  0  0  0  0  0  0
   28.0207   11.7251   11.0419 H   0  0  0  0  0  0  0  0  0  0  0  0
  1  2  1  0
  2  3  1  0
  3  4  2  0
  4  5  1  0
  5  6  1  0
  6  7  2  0
  6  8  2  0
  6  9  1  0
  9 10  1  0
 10 11  2  0
 11 12  1  0
 12 13  2  0
 13 14  1  0
 14 15  2  0
 15 16  1  0
 16 17  2  0
 17 18  1  0
 18 19  2  0
 19 20  1  0
 20 21  2  0
 20 22  1  0
 22 23  2  0
 22 24  1  0
 24 25  1  0
 25 26  1  0
 26 27  1  0
 27 28  1  0
 28 29  2  0
 28 30  1  0
 30 31  1  0
 31 32  2  0
 24 33  1  0
 33 34  2  0
  5 35  1  0
 35 36  2  0
 36  3  1  0
 15 10  1  0
 21 16  1  0
 31 25  1  0
 33 19  1  0
  1 37  1  0
  1 38  1  0
  1 39  1  0
  2 40  1  0
  2 41  1  0
  4 42  1  0
 11 43  1  0
 12 44  1  0
 13 45  1  0
 14 46  1  0
 17 47  1  0
 18 48  1  0
 21 49  1  0
 25 50  1  1
 26 51  1  0
 26 52  1  0
 27 53  1  0
 27 54  1  0
 30 55  1  0
 35 56  1  0
M  END
>  <meeko>  (624) 
{"is_sidechain": [true], "free_energy": -11.92, "intermolecular_energy": 0.0, "internal_energy": -11.92, "cluster_size": 6, "cluster_id": 1, "rank_in_cluster": 1}

>  <_RMSD_MCS_to_ref>  (624) 
1.5003519937878433

$$$$
ligand
     RDKit          3D

 48 51  0  0  0  0  0  0  0  0999 V2000
   24.8710    9.6160    7.7820 C   0  0  0  0  0  0  0  0  0  0  0  0
   25.4240   10.9650    7.3490 C   0  0  0  0  0  0  0  0  0  0  0  0
   26.4660   11.4720    8.2810 C   0  0  0  0  0  0  0  0  0  0  0  0
   27.2740   12.5860    8.1590 C   0  0  0  0  0  0  0  0  0  0  0  0
   28.0490   12.5610    9.2840 N   0  0  0  0  0  0  0  0  0  0  0  0
   29.1940   13.7210    9.7090 S   0  0  0  0  0  6  0  0  0  0  0  0
   29.9080   13.9680    8.4670 O   0  0  0  0  0  0  0  0  0  0  0  0
   29.8950   13.1940   10.8660 O   0  0  0  0  0  0  0  0  0  0  0  0
   28.4240   15.1010   10.1080 O   0  0  0  0  0  0  0  0  0  0  0  0
   27.0630   15.2810    9.9530 C   0  0  0  0  0  0  0  0  0  0  0  0
   26.3780   15.7760   11.0020 C   0  0  0  0  0  0  0  0  0  0  0  0
   25.0120   15.9810   10.8880 N   0  0  0  0  0  0  0  0  0  0  0  0
   24.0410   16.4550   11.7510 C   0  0  0  0  0  0  0  0  0  0  0  0
   24.2690   16.8960   13.1030 C   0  0  0  0  0  0  0  0  0  0  0  0
   23.8510   16.2980   14.0900 O   0  0  0  0  0  0  0  0  0  0  0  0
   24.9920   18.0590   13.2320 N   0  0  0  0  0  0  0  0  0  0  0  0
   25.1800   18.7010   14.5270 C   0  0  1  0  0  0  0  0  0  0  0  0
   26.2030   17.9720   15.3930 C   0  0  0  0  0  0  0  0  0  0  0  0
   26.3820   18.7210   16.7040 C   0  0  0  0  0  0  0  0  0  0  0  0
   26.7700   20.1610   16.4650 C   0  0  0  0  0  0  0  0  0  0  0  0
   27.5210   20.7750   17.2170 O   0  0  0  0  0  0  0  0  0  0  0  0
   26.2160   20.7730   15.3690 N   0  0  0  0  0  0  0  0  0  0  0  0
   25.6650   20.1350   14.2880 C   0  0  0  0  0  0  0  0  0  0  0  0
   25.5640   20.6930   13.1950 O   0  0  0  0  0  0  0  0  0  0  0  0
   22.8760   16.4040   10.9940 C   0  0  0  0  0  0  0  0  0  0  0  0
   23.1000   15.9190    9.7290 N   0  0  0  0  0  0  0  0  0  0  0  0
   24.3870   15.6790    9.7060 C   0  0  0  0  0  0  0  0  0  0  0  0
   25.1760   15.1620    8.6260 C   0  0  0  0  0  0  0  0  0  0  0  0
   26.4630   14.9730    8.7440 N   0  0  0  0  0  0  0  0  0  0  0  0
   27.6990   11.4920   10.0450 C   0  0  0  0  0  0  0  0  0  0  0  0
   26.7400   10.8040    9.4590 N   0  0  0  0  0  0  0  0  0  0  0  0
   24.8497    9.5640    8.8806 H   0  0  0  0  0  0  0  0  0  0  0  0
   23.8507    9.4948    7.3893 H   0  0  0  0  0  0  0  0  0  0  0  0
   25.5127    8.8135    7.3893 H   0  0  0  0  0  0  0  0  0  0  0  0
   25.8656   10.8614    6.3469 H   0  0  0  0  0  0  0  0  0  0  0  0
   24.5928   11.6855    7.3485 H   0  0  0  0  0  0  0  0  0  0  0  0
   27.2898   13.3238    7.3433 H   0  0  0  0  0  0  0  0  0  0  0  0
   26.8984   16.0155   11.9411 H   0  0  0  0  0  0  0  0  0  0  0  0
   25.4105   18.4864   12.3935 H   0  0  0  0  0  0  0  0  0  0  0  0
   24.2187   18.6815   15.0613 H   0  0  0  0  0  0  0  0  0  0  0  0
   25.8482   16.9514   15.5992 H   0  0  0  0  0  0  0  0  0  0  0  0
   27.1657   17.9251   14.8628 H   0  0  0  0  0  0  0  0  0  0  0  0
   25.4360   18.6931   17.2646 H   0  0  0  0  0  0  0  0  0  0  0  0
   27.1870   18.2347   17.2745 H   0  0  0  0  0  0  0  0  0  0  0  0
   26.2139   21.8029   15.3575 H   0  0  0  0  0  0  0  0  0  0  0  0
   21.8888   16.7161   11.3655 H   0  0  0  0  0  0  0  0  0  0  0  0
   24.6843   14.9181    7.6727 H   0  0  0  0  0  0  0  0  0  0  0  0
   28.1523   11.2364   11.0141 H   0  0  0  0  0  0  0  0  0  0  0  0
  1  2  1  0
  2  3  1  0
  3  4  2  0
  4  5  1  0
  5  6  1  0
  6  7  2  0
  6  8  2  0
  6  9  1  0
  9 10  1  0
 10 11  2  0
 11 12  1  0
 12 13  1  0
 13 14  1  0
 14 15  2  0
 14 16  1  0
 16 17  1  0
 17 18  1  0
 18 19  1  0
 19 20  1  0
 20 21  2  0
 20 22  1  0
 22 23  1  0
 23 24  2  0
 13 25  2  0
 25 26  1  0
 26 27  2  0
 27 28  1  0
 28 29  2  0
  5 30  1  0
 30 31  2  0
 31  3  1  0
 29 10  1  0
 27 12  1  0
 23 17  1  0
  1 32  1  0
  1 33  1  0
  1 34  1  0
  2 35  1  0
  2 36  1  0
  4 37  1  0
 11 38  1  0
 16 39  1  0
 17 40  1  1
 18 41  1  0
 18 42  1  0
 19 43  1  0
 19 44  1  0
 22 45  1  0
 25 46  1  0
 28 47  1  0
 30 48  1  0
M  END
>  <meeko>  (625) 
{"is_sidechain": [true], "free_energy": -11.92, "intermolecular_energy": 0.0, "internal_energy": -11.92, "cluster_size": 15, "cluster_id": 1, "rank_in_cluster": 1}

>  <_RMSD_MCS_to_ref>  (625) 
0.7077928133759678

$$$$
ligand
     RDKit          3D

 64 69  0  0  0  0  0  0  0  0999 V2000
   24.8710    9.6160    7.7820 C   0  0  0  0  0  0  0  0  0  0  0  0
   25.4240   10.9650    7.3490 C   0  0  0  0  0  0  0  0  0  0  0  0
   24.9260   11.3730    6.0070 C   0  0  0  0  0  0  0  0  0  0  0  0
   24.1970   12.4920    5.6560 C   0  0  0  0  0  0  0  0  0  0  0  0
   24.0160   12.3660    4.3090 N   0  0  0  0  0  0  0  0  0  0  0  0
   23.4410   13.5650    3.2660 S   0  0  0  0  0  6  0  0  0  0  0  0
   22.0940   13.8470    3.7290 O   0  0  0  0  0  0  0  0  0  0  0  0
   23.6720   13.0200    1.9400 O   0  0  0  0  0  0  0  0  0  0  0  0
   24.3700   14.9040    3.4310 O   0  0  0  0  0  0  0  0  0  0  0  0
   25.2760   14.9610    4.4500 C   0  0  0  0  0  0  0  0  0  0  0  0
   24.8170   15.1550    5.7570 C   0  0  0  0  0  0  0  0  0  0  0  0
   25.7140   15.2630    6.8430 C   0  0  0  0  0  0  0  0  0  0  0  0
   25.2170   15.5310    8.2040 C   0  0  0  0  0  0  0  0  0  0  0  0
   24.0200   14.9270    8.6690 C   0  0  0  0  0  0  0  0  0  0  0  0
   23.5140   15.1650    9.9550 C   0  0  0  0  0  0  0  0  0  0  0  0
   24.2210   16.0160   10.7830 C   0  0  0  0  0  0  0  0  0  0  0  0
   25.3960   16.6110   10.3320 C   0  0  0  0  0  0  0  0  0  0  0  0
   25.9120   16.3940    9.0680 C   0  0  0  0  0  0  0  0  0  0  0  0
   25.9200   17.4580   11.4080 C   0  0  0  0  0  0  0  0  0  0  0  0
   26.9060   18.1630   11.3260 O   0  0  0  0  0  0  0  0  0  0  0  0
   25.0800   17.2870   12.4990 N   0  0  0  0  0  0  0  0  0  0  0  0
   25.1450   18.1590   13.6640 C   0  0  2  0  0  0  0  0  0  0  0  0
   25.7380   19.5260   13.3380 C   0  0  0  0  0  0  0  0  0  0  0  0
   25.6870   20.4070   14.5780 C   0  0  0  0  0  0  0  0  0  0  0  0
   26.3900   19.7500   15.7430 C   0  0  0  0  0  0  0  0  0  0  0  0
   27.0320   20.3920   16.5690 O   0  0  0  0  0  0  0  0  0  0  0  0
   26.2610   18.3880   15.8480 N   0  0  0  0  0  0  0  0  0  0  0  0
   25.9440   17.5300   14.8200 C   0  0  0  0  0  0  0  0  0  0  0  0
   26.3020   16.3560   14.8600 O   0  0  0  0  0  0  0  0  0  0  0  0
   23.9190   16.4650   12.1730 C   0  0  0  0  0  0  0  0  0  0  0  0
   27.0900   15.1200    6.5910 C   0  0  0  0  0  0  0  0  0  0  0  0
   27.5260   14.8680    5.2970 C   0  0  0  0  0  0  0  0  0  0  0  0
   26.6280   14.7900    4.2300 C   0  0  0  0  0  0  0  0  0  0  0  0
   27.3600   14.5460    2.9470 C   0  0  0  0  0  0  0  0  0  0  0  0
   28.7070   14.0220    3.4640 C   0  0  0  0  0  0  0  0  0  0  0  0
   28.9360   14.6890    4.8260 C   0  0  0  0  0  0  0  0  0  0  0  0
   24.6450   11.2400    3.8780 C   0  0  0  0  0  0  0  0  0  0  0  0
   25.2050   10.6070    4.8900 N   0  0  0  0  0  0  0  0  0  0  0  0
   24.8497    9.5640    8.8806 H   0  0  0  0  0  0  0  0  0  0  0  0
   23.8507    9.4948    7.3893 H   0  0  0  0  0  0  0  0  0  0  0  0
   25.5127    8.8135    7.3893 H   0  0  0  0  0  0  0  0  0  0  0  0
   25.1214   11.7245    8.0849 H   0  0  0  0  0  0  0  0  0  0  0  0
   26.5190   10.8777    7.2904 H   0  0  0  0  0  0  0  0  0  0  0  0
   23.8429   13.3006    6.3123 H   0  0  0  0  0  0  0  0  0  0  0  0
   23.7351   15.2249    5.9431 H   0  0  0  0  0  0  0  0  0  0  0  0
   23.4709   14.2497    7.9984 H   0  0  0  0  0  0  0  0  0  0  0  0
   22.5824   14.6887   10.2944 H   0  0  0  0  0  0  0  0  0  0  0  0
   26.8428   16.8844    8.7468 H   0  0  0  0  0  0  0  0  0  0  0  0
   24.1005   18.2933   13.9819 H   0  0  0  0  0  0  0  0  0  0  0  0
   26.7829   19.4056   13.0159 H   0  0  0  0  0  0  0  0  0  0  0  0
   25.1581   19.9951   12.5295 H   0  0  0  0  0  0  0  0  0  0  0  0
   26.1778   21.3664   14.3572 H   0  0  0  0  0  0  0  0  0  0  0  0
   24.6331   20.5649   14.8506 H   0  0  0  0  0  0  0  0  0  0  0  0
   26.4149   17.9715   16.7774 H   0  0  0  0  0  0  0  0  0  0  0  0
   23.8337   15.6083   12.8577 H   0  0  0  0  0  0  0  0  0  0  0  0
   22.9629   17.0016   12.2624 H   0  0  0  0  0  0  0  0  0  0  0  0
   27.8157   15.2071    7.4130 H   0  0  0  0  0  0  0  0  0  0  0  0
   26.8472   13.7957    2.3272 H   0  0  0  0  0  0  0  0  0  0  0  0
   27.4398   15.4310    2.2987 H   0  0  0  0  0  0  0  0  0  0  0  0
   28.6720   12.9284    3.5769 H   0  0  0  0  0  0  0  0  0  0  0  0
   29.5219   14.2557    2.7630 H   0  0  0  0  0  0  0  0  0  0  0  0
   29.5086   14.0383    5.5033 H   0  0  0  0  0  0  0  0  0  0  0  0
   29.5212   15.6194    4.7826 H   0  0  0  0  0  0  0  0  0  0  0  0
   24.6815   10.9042    2.8312 H   0  0  0  0  0  0  0  0  0  0  0  0
  1  2  1  0
  2  3  1  0
  3  4  2  0
  4  5  1  0
  5  6  1  0
  6  7  2  0
  6  8  2  0
  6  9  1  0
  9 10  1  0
 10 11  2  0
 11 12  1  0
 12 13  1  0
 13 14  2  0
 14 15  1  0
 15 16  2  0
 16 17  1  0
 17 18  2  0
 17 19  1  0
 19 20  2  0
 19 21  1  0
 21 22  1  0
 22 23  1  0
 23 24  1  0
 24 25  1  0
 25 26  2  0
 25 27  1  0
 27 28  1  0
 28 29  2  0
 21 30  1  0
 12 31  2  0
 31 32  1  0
 32 33  2  0
 33 34  1  0
 34 35  1  0
 35 36  1  0
  5 37  1  0
 37 38  2  0
 38  3  1  0
 33 10  1  0
 18 13  1  0
 28 22  1  0
 36 32  1  0
 30 16  1  0
  1 39  1  0
  1 40  1  0
  1 41  1  0
  2 42  1  0
  2 43  1  0
  4 44  1  0
 11 45  1  0
 14 46  1  0
 15 47  1  0
 18 48  1  0
 22 49  1  1
 23 50  1  0
 23 51  1  0
 24 52  1  0
 24 53  1  0
 27 54  1  0
 30 55  1  0
 30 56  1  0
 31 57  1  0
 34 58  1  0
 34 59  1  0
 35 60  1  0
 35 61  1  0
 36 62  1  0
 36 63  1  0
 37 64  1  0
M  END
>  <meeko>  (626) 
{"is_sidechain": [true], "free_energy": -11.91, "intermolecular_energy": 0.0, "internal_energy": -11.91, "cluster_size": 6, "cluster_id": 2, "rank_in_cluster": 1}

>  <_RMSD_MCS_to_ref>  (626) 
1.770914029533901

$$$$
ligand
     RDKit          3D

 48 51  0  0  0  0  0  0  0  0999 V2000
   24.8710    9.6160    7.7820 C   0  0  0  0  0  0  0  0  0  0  0  0
   25.4240   10.9650    7.3490 C   0  0  0  0  0  0  0  0  0  0  0  0
   26.5130   11.4390    8.2450 C   0  0  0  0  0  0  0  0  0  0  0  0
   27.6640   12.1310    7.9220 C   0  0  0  0  0  0  0  0  0  0  0  0
   28.3050   12.2930    9.1190 N   0  0  0  0  0  0  0  0  0  0  0  0
   29.6310   13.3010    9.4050 S   0  0  0  0  0  6  0  0  0  0  0  0
   30.0780   12.9320   10.7360 O   0  0  0  0  0  0  0  0  0  0  0  0
   30.4940   13.1270    8.2510 O   0  0  0  0  0  0  0  0  0  0  0  0
   29.0960   14.8480    9.4590 O   0  0  0  0  0  0  0  0  0  0  0  0
   27.7430   15.0870    9.3530 C   0  0  0  0  0  0  0  0  0  0  0  0
   27.0880   14.8190    8.1230 C   0  0  0  0  0  0  0  0  0  0  0  0
   25.7050   15.0110    7.9390 C   0  0  0  0  0  0  0  0  0  0  0  0
   25.0050   15.5020    9.0650 C   0  0  0  0  0  0  0  0  0  0  0  0
   23.6940   15.7440    9.1430 N   0  0  0  0  0  0  0  0  0  0  0  0
   23.3090   16.3030   10.6430 S   0  0  0  0  0  0  0  0  0  0  0  0
   24.8850   16.2590   11.3090 C   0  0  0  0  0  0  0  0  0  0  0  0
   25.1510   16.6720   12.6750 C   0  0  0  0  0  0  0  0  0  0  0  0
   25.3200   15.8820   13.6020 O   0  0  0  0  0  0  0  0  0  0  0  0
   25.1900   18.0310   12.9110 N   0  0  0  0  0  0  0  0  0  0  0  0
   25.2670   18.5760   14.2590 C   0  0  1  0  0  0  0  0  0  0  0  0
   26.3180   17.8710   15.1090 C   0  0  0  0  0  0  0  0  0  0  0  0
   26.3740   18.5180   16.4850 C   0  0  0  0  0  0  0  0  0  0  0  0
   26.6330   20.0040   16.3820 C   0  0  0  0  0  0  0  0  0  0  0  0
   27.2940   20.6170   17.2150 O   0  0  0  0  0  0  0  0  0  0  0  0
   26.0650   20.6540   15.3160 N   0  0  0  0  0  0  0  0  0  0  0  0
   25.6210   20.0620   14.1600 C   0  0  0  0  0  0  0  0  0  0  0  0
   25.5120   20.7020   13.1150 O   0  0  0  0  0  0  0  0  0  0  0  0
   25.7290   15.7960   10.3140 C   0  0  0  0  0  0  0  0  0  0  0  0
   27.1080   15.6150   10.4940 C   0  0  0  0  0  0  0  0  0  0  0  0
   27.5390   11.7670   10.1080 C   0  0  0  0  0  0  0  0  0  0  0  0
   26.4470   11.2250    9.6080 N   0  0  0  0  0  0  0  0  0  0  0  0
   24.8497    9.5640    8.8806 H   0  0  0  0  0  0  0  0  0  0  0  0
   23.8507    9.4948    7.3893 H   0  0  0  0  0  0  0  0  0  0  0  0
   25.5127    8.8135    7.3893 H   0  0  0  0  0  0  0  0  0  0  0  0
   25.8204   10.8740    6.3270 H   0  0  0  0  0  0  0  0  0  0  0  0
   24.6045   11.6972    7.3964 H   0  0  0  0  0  0  0  0  0  0  0  0
   27.9904   12.4735    6.9289 H   0  0  0  0  0  0  0  0  0  0  0  0
   27.6854   14.4458    7.2781 H   0  0  0  0  0  0  0  0  0  0  0  0
   25.2036   14.7938    6.9843 H   0  0  0  0  0  0  0  0  0  0  0  0
   25.1639   18.6786   12.1105 H   0  0  0  0  0  0  0  0  0  0  0  0
   24.2920   18.4254   14.7454 H   0  0  0  0  0  0  0  0  0  0  0  0
   26.0527   16.8086   15.2138 H   0  0  0  0  0  0  0  0  0  0  0  0
   27.3010   17.9569   14.6229 H   0  0  0  0  0  0  0  0  0  0  0  0
   25.4138   18.3560   16.9967 H   0  0  0  0  0  0  0  0  0  0  0  0
   27.1983   18.0599   17.0513 H   0  0  0  0  0  0  0  0  0  0  0  0
   25.9627   21.6763   15.3895 H   0  0  0  0  0  0  0  0  0  0  0  0
   27.6373   15.8593   11.4268 H   0  0  0  0  0  0  0  0  0  0  0  0
   27.7941   11.7899   11.1778 H   0  0  0  0  0  0  0  0  0  0  0  0
  1  2  1  0
  2  3  1  0
  3  4  2  0
  4  5  1  0
  5  6  1  0
  6  7  2  0
  6  8  2  0
  6  9  1  0
  9 10  1  0
 10 11  1  0
 11 12  2  0
 12 13  1  0
 13 14  2  0
 14 15  1  0
 15 16  1  0
 16 17  1  0
 17 18  2  0
 17 19  1  0
 19 20  1  0
 20 21  1  0
 21 22  1  0
 22 23  1  0
 23 24  2  0
 23 25  1  0
 25 26  1  0
 26 27  2  0
 16 28  2  0
 28 29  1  0
  5 30  1  0
 30 31  2  0
 31  3  1  0
 29 10  2  0
 28 13  1  0
 26 20  1  0
  1 32  1  0
  1 33  1  0
  1 34  1  0
  2 35  1  0
  2 36  1  0
  4 37  1  0
 11 38  1  0
 12 39  1  0
 19 40  1  0
 20 41  1  1
 21 42  1  0
 21 43  1  0
 22 44  1  0
 22 45  1  0
 25 46  1  0
 29 47  1  0
 30 48  1  0
M  END
>  <meeko>  (627) 
{"is_sidechain": [true], "free_energy": -11.9, "intermolecular_energy": 0.0, "internal_energy": -11.9, "cluster_size": 14, "cluster_id": 1, "rank_in_cluster": 1}

>  <_RMSD_MCS_to_ref>  (627) 
0.6959326276459687

$$$$
ligand
     RDKit          3D

 57 61  0  0  0  0  0  0  0  0999 V2000
   24.8540    9.4020    7.6050 C   0  0  0  0  0  0  0  0  0  0  0  0
   25.5230   10.7550    7.4270 C   0  0  0  0  0  0  0  0  0  0  0  0
   25.0530   11.4580    6.2020 C   0  0  0  0  0  0  0  0  0  0  0  0
   25.3670   12.7250    5.7530 C   0  0  0  0  0  0  0  0  0  0  0  0
   24.6860   12.8410    4.5760 N   0  0  0  0  0  0  0  0  0  0  0  0
   24.5050   14.2520    3.6870 S   0  0  0  0  0  6  0  0  0  0  0  0
   24.3760   13.8440    2.3020 O   0  0  0  0  0  0  0  0  0  0  0  0
   23.5340   15.0650    4.3900 O   0  0  0  0  0  0  0  0  0  0  0  0
   25.9970   15.1530    3.7530 C   0  0  0  0  0  0  0  0  0  0  0  0
   26.8360   15.1780    2.6740 N   0  0  0  0  0  0  0  0  0  0  0  0
   27.8990   15.9790    2.8300 N   0  0  0  0  0  0  0  0  0  0  0  0
   27.7760   16.4220    4.0860 C   0  0  0  0  0  0  0  0  0  0  0  0
   26.6180   15.9210    4.7180 C   0  0  0  0  0  0  0  0  0  0  0  0
   26.1260   16.1030    6.0020 N   0  0  0  0  0  0  0  0  0  0  0  0
   26.5970   15.4250    7.1100 C   0  0  0  0  0  0  0  0  0  0  0  0
   27.4810   14.5750    7.1070 O   0  0  0  0  0  0  0  0  0  0  0  0
   25.9360   15.7720    8.3990 C   0  0  0  0  0  0  0  0  0  0  0  0
   24.6090   15.3310    8.6120 C   0  0  0  0  0  0  0  0  0  0  0  0
   23.9310   15.6160    9.8040 C   0  0  0  0  0  0  0  0  0  0  0  0
   24.6040   16.3290   10.7790 C   0  0  0  0  0  0  0  0  0  0  0  0
   25.9180   16.7410   10.5640 C   0  0  0  0  0  0  0  0  0  0  0  0
   26.6120   16.4830    9.3980 C   0  0  0  0  0  0  0  0  0  0  0  0
   26.3750   17.4550   11.7600 C   0  0  0  0  0  0  0  0  0  0  0  0
   27.4550   18.0030   11.8540 O   0  0  0  0  0  0  0  0  0  0  0  0
   25.3480   17.3830   12.6870 N   0  0  0  0  0  0  0  0  0  0  0  0
   25.2980   18.1640   13.9200 C   0  0  1  0  0  0  0  0  0  0  0  0
   26.1420   17.5820   15.0530 C   0  0  0  0  0  0  0  0  0  0  0  0
   25.9690   18.4350   16.2990 C   0  0  0  0  0  0  0  0  0  0  0  0
   26.3300   19.8780   16.0310 C   0  0  0  0  0  0  0  0  0  0  0  0
   26.6800   20.6410   16.9270 O   0  0  0  0  0  0  0  0  0  0  0  0
   26.1720   20.3230   14.7440 N   0  0  0  0  0  0  0  0  0  0  0  0
   25.6800   19.6300   13.6620 C   0  0  0  0  0  0  0  0  0  0  0  0
   25.4750   20.2060   12.5940 O   0  0  0  0  0  0  0  0  0  0  0  0
   24.1440   16.7860   12.1220 C   0  0  0  0  0  0  0  0  0  0  0  0
   23.9550   11.7160    4.3700 C   0  0  0  0  0  0  0  0  0  0  0  0
   24.1680   10.8470    5.3350 N   0  0  0  0  0  0  0  0  0  0  0  0
   24.7464    9.1845    8.6779 H   0  0  0  0  0  0  0  0  0  0  0  0
   23.8606    9.4192    7.1330 H   0  0  0  0  0  0  0  0  0  0  0  0
   25.4708    8.6230    7.1330 H   0  0  0  0  0  0  0  0  0  0  0  0
   25.2963   11.3802    8.3032 H   0  0  0  0  0  0  0  0  0  0  0  0
   26.6051   10.5858    7.3250 H   0  0  0  0  0  0  0  0  0  0  0  0
   26.0173   13.4706    6.2339 H   0  0  0  0  0  0  0  0  0  0  0  0
   26.6664   14.6305    1.8182 H   0  0  0  0  0  0  0  0  0  0  0  0
   28.4949   17.0990    4.5706 H   0  0  0  0  0  0  0  0  0  0  0  0
   25.3648   16.7835    6.1375 H   0  0  0  0  0  0  0  0  0  0  0  0
   24.0998   14.7532    7.8266 H   0  0  0  0  0  0  0  0  0  0  0  0
   22.8944   15.2827    9.9598 H   0  0  0  0  0  0  0  0  0  0  0  0
   27.6497   16.8211    9.2603 H   0  0  0  0  0  0  0  0  0  0  0  0
   24.2526   18.1161   14.2588 H   0  0  0  0  0  0  0  0  0  0  0  0
   25.8145   16.5533   15.2638 H   0  0  0  0  0  0  0  0  0  0  0  0
   27.2012   17.5744   14.7564 H   0  0  0  0  0  0  0  0  0  0  0  0
   24.9201   18.3828   16.6262 H   0  0  0  0  0  0  0  0  0  0  0  0
   26.6400   18.0485   17.0803 H   0  0  0  0  0  0  0  0  0  0  0  0
   26.4568   21.2965   14.5649 H   0  0  0  0  0  0  0  0  0  0  0  0
   23.7975   15.9388   12.7321 H   0  0  0  0  0  0  0  0  0  0  0  0
   23.2916   17.4800   12.0787 H   0  0  0  0  0  0  0  0  0  0  0  0
   23.2799   11.5536    3.5169 H   0  0  0  0  0  0  0  0  0  0  0  0
  1  2  1  0
  2  3  1  0
  3  4  2  0
  4  5  1  0
  5  6  1  0
  6  7  2  0
  6  8  2  0
  6  9  1  0
  9 10  1  0
 10 11  1  0
 11 12  2  0
 12 13  1  0
 13 14  1  0
 14 15  1  0
 15 16  2  0
 15 17  1  0
 17 18  2  0
 18 19  1  0
 19 20  2  0
 20 21  1  0
 21 22  2  0
 21 23  1  0
 23 24  2  0
 23 25  1  0
 25 26  1  0
 26 27  1  0
 27 28  1  0
 28 29  1  0
 29 30  2  0
 29 31  1  0
 31 32  1  0
 32 33  2  0
 25 34  1  0
  5 35  1  0
 35 36  2  0
 36  3  1  0
 13  9  2  0
 22 17  1  0
 32 26  1  0
 34 20  1  0
  1 37  1  0
  1 38  1  0
  1 39  1  0
  2 40  1  0
  2 41  1  0
  4 42  1  0
 10 43  1  0
 12 44  1  0
 14 45  1  0
 18 46  1  0
 19 47  1  0
 22 48  1  0
 26 49  1  1
 27 50  1  0
 27 51  1  0
 28 52  1  0
 28 53  1  0
 31 54  1  0
 34 55  1  0
 34 56  1  0
 35 57  1  0
M  END
>  <meeko>  (628) 
{"is_sidechain": [true], "free_energy": -11.89, "intermolecular_energy": 0.0, "internal_energy": -11.89, "cluster_size": 13, "cluster_id": 2, "rank_in_cluster": 1}

>  <_RMSD_MCS_to_ref>  (628) 
0.9167116352606318

$$$$
ligand
     RDKit          3D

 61 66  0  0  0  0  0  0  0  0999 V2000
   24.8540    9.4020    7.6050 C   0  0  0  0  0  0  0  0  0  0  0  0
   25.5230   10.7550    7.4270 C   0  0  0  0  0  0  0  0  0  0  0  0
   25.3460   11.2870    6.0490 C   0  0  0  0  0  0  0  0  0  0  0  0
   26.0910   12.2440    5.3860 C   0  0  0  0  0  0  0  0  0  0  0  0
   25.5350   12.2930    4.1390 N   0  0  0  0  0  0  0  0  0  0  0  0
   25.9430   13.3560    2.8980 S   0  0  0  0  0  6  0  0  0  0  0  0
   24.7440   13.3880    2.0800 O   0  0  0  0  0  0  0  0  0  0  0  0
   27.1930   12.8500    2.3620 O   0  0  0  0  0  0  0  0  0  0  0  0
   26.1740   14.8460    3.5040 O   0  0  0  0  0  0  0  0  0  0  0  0
   27.0030   15.1810    4.5110 C   0  0  0  0  0  0  0  0  0  0  0  0
   28.3390   15.3550    4.2350 C   0  0  0  0  0  0  0  0  0  0  0  0
   28.9620   15.7180    5.3940 N   0  0  0  0  0  0  0  0  0  0  0  0
   28.0520   15.7620    6.4250 C   0  0  0  0  0  0  0  0  0  0  0  0
   28.2630   16.0790    7.7700 C   0  0  0  0  0  0  0  0  0  0  0  0
   27.1670   16.0200    8.6320 C   0  0  0  0  0  0  0  0  0  0  0  0
   25.8960   15.6450    8.1820 C   0  0  0  0  0  0  0  0  0  0  0  0
   24.7710   15.5980    9.1240 C   0  0  0  0  0  0  0  0  0  0  0  0
   23.5360   15.0240    8.7620 C   0  0  0  0  0  0  0  0  0  0  0  0
   22.4560   14.9540    9.6650 C   0  0  0  0  0  0  0  0  0  0  0  0
   22.5810   15.4530   10.9610 C   0  0  0  0  0  0  0  0  0  0  0  0
   23.7960   16.0070   11.3090 C   0  0  0  0  0  0  0  0  0  0  0  0
   24.8710   16.0870   10.4230 C   0  0  0  0  0  0  0  0  0  0  0  0
   26.0170   16.7630   11.0960 C   0  0  0  0  0  0  0  0  0  0  0  0
   25.5390   16.9580   12.4530 N   0  0  0  0  0  0  0  0  0  0  0  0
   26.2570   17.8390   13.3690 C   0  0  2  0  0  0  0  0  0  0  0  0
   25.9280   17.5960   14.8400 C   0  0  0  0  0  0  0  0  0  0  0  0
   26.8050   18.4940   15.7000 C   0  0  0  0  0  0  0  0  0  0  0  0
   26.6330   19.9490   15.3290 C   0  0  0  0  0  0  0  0  0  0  0  0
   26.8400   20.8560   16.1300 O   0  0  0  0  0  0  0  0  0  0  0  0
   26.2930   20.2180   14.0270 N   0  0  0  0  0  0  0  0  0  0  0  0
   26.0360   19.3190   13.0150 C   0  0  0  0  0  0  0  0  0  0  0  0
   25.7240   19.7220   11.8950 O   0  0  0  0  0  0  0  0  0  0  0  0
   24.2050   16.6070   12.5850 C   0  0  0  0  0  0  0  0  0  0  0  0
   23.4710   16.7630   13.5420 O   0  0  0  0  0  0  0  0  0  0  0  0
   25.7190   15.3270    6.8170 C   0  0  0  0  0  0  0  0  0  0  0  0
   26.8010   15.4010    5.9090 C   0  0  0  0  0  0  0  0  0  0  0  0
   24.4190   11.5200    4.1250 C   0  0  0  0  0  0  0  0  0  0  0  0
   24.3130   10.8400    5.2490 N   0  0  0  0  0  0  0  0  0  0  0  0
   24.7464    9.1845    8.6779 H   0  0  0  0  0  0  0  0  0  0  0  0
   23.8606    9.4192    7.1330 H   0  0  0  0  0  0  0  0  0  0  0  0
   25.4708    8.6230    7.1330 H   0  0  0  0  0  0  0  0  0  0  0  0
   25.0823   11.4659    8.1415 H   0  0  0  0  0  0  0  0  0  0  0  0
   26.6008   10.6274    7.6062 H   0  0  0  0  0  0  0  0  0  0  0  0
   26.9368   12.8310    5.7732 H   0  0  0  0  0  0  0  0  0  0  0  0
   28.8201   15.2248    3.2544 H   0  0  0  0  0  0  0  0  0  0  0  0
   29.9663   15.9282    5.4836 H   0  0  0  0  0  0  0  0  0  0  0  0
   29.2597   16.3654    8.1368 H   0  0  0  0  0  0  0  0  0  0  0  0
   27.3058   16.2749    9.6930 H   0  0  0  0  0  0  0  0  0  0  0  0
   23.4114   14.6194    7.7467 H   0  0  0  0  0  0  0  0  0  0  0  0
   21.5060   14.5016    9.3444 H   0  0  0  0  0  0  0  0  0  0  0  0
   21.7462   15.4070   11.6759 H   0  0  0  0  0  0  0  0  0  0  0  0
   26.9138   16.1262   11.0817 H   0  0  0  0  0  0  0  0  0  0  0  0
   26.3123   17.7017   10.6044 H   0  0  0  0  0  0  0  0  0  0  0  0
   27.3202   17.5895   13.2369 H   0  0  0  0  0  0  0  0  0  0  0  0
   24.8689   17.8294   15.0242 H   0  0  0  0  0  0  0  0  0  0  0  0
   26.1154   16.5420   15.0930 H   0  0  0  0  0  0  0  0  0  0  0  0
   26.5292   18.3587   16.7562 H   0  0  0  0  0  0  0  0  0  0  0  0
   27.8559   18.2153   15.5330 H   0  0  0  0  0  0  0  0  0  0  0  0
   26.2211   21.2142   13.7754 H   0  0  0  0  0  0  0  0  0  0  0  0
   24.7271   15.0179    6.4557 H   0  0  0  0  0  0  0  0  0  0  0  0
   23.7029   11.4684    3.2916 H   0  0  0  0  0  0  0  0  0  0  0  0
  1  2  1  0
  2  3  1  0
  3  4  2  0
  4  5  1  0
  5  6  1  0
  6  7  2  0
  6  8  2  0
  6  9  1  0
  9 10  1  0
 10 11  2  0
 11 12  1  0
 12 13  1  0
 13 14  2  0
 14 15  1  0
 15 16  2  0
 16 17  1  0
 17 18  2  0
 18 19  1  0
 19 20  2  0
 20 21  1  0
 21 22  2  0
 22 23  1  0
 23 24  1  0
 24 25  1  0
 25 26  1  0
 26 27  1  0
 27 28  1  0
 28 29  2  0
 28 30  1  0
 30 31  1  0
 31 32  2  0
 24 33  1  0
 33 34  2  0
 16 35  1  0
 35 36  2  0
  5 37  1  0
 37 38  2  0
 38  3  1  0
 36 10  1  0
 36 13  1  0
 22 17  1  0
 31 25  1  0
 33 21  1  0
  1 39  1  0
  1 40  1  0
  1 41  1  0
  2 42  1  0
  2 43  1  0
  4 44  1  0
 11 45  1  0
 12 46  1  0
 14 47  1  0
 15 48  1  0
 18 49  1  0
 19 50  1  0
 20 51  1  0
 23 52  1  0
 23 53  1  0
 25 54  1  1
 26 55  1  0
 26 56  1  0
 27 57  1  0
 27 58  1  0
 30 59  1  0
 35 60  1  0
 37 61  1  0
M  END
>  <meeko>  (629) 
{"is_sidechain": [true], "free_energy": -11.89, "intermolecular_energy": 0.0, "internal_energy": -11.89, "cluster_size": 1, "cluster_id": 3, "rank_in_cluster": 1}

>  <_RMSD_MCS_to_ref>  (629) 
1.5442320277586385

$$$$
ligand
     RDKit          3D

 48 51  0  0  0  0  0  0  0  0999 V2000
   24.8710    9.6160    7.7820 C   0  0  0  0  0  0  0  0  0  0  0  0
   25.4240   10.9650    7.3490 C   0  0  0  0  0  0  0  0  0  0  0  0
   26.5180   11.4350    8.2430 C   0  0  0  0  0  0  0  0  0  0  0  0
   27.3570   12.5210    8.0920 C   0  0  0  0  0  0  0  0  0  0  0  0
   28.1660   12.4710    9.1910 N   0  0  0  0  0  0  0  0  0  0  0  0
   29.3530   13.6030    9.5840 S   0  0  0  0  0  6  0  0  0  0  0  0
   30.2990   13.5100    8.4850 O   0  0  0  0  0  0  0  0  0  0  0  0
   29.7720   13.2950   10.9400 O   0  0  0  0  0  0  0  0  0  0  0  0
   28.7100   15.1000    9.5380 O   0  0  0  0  0  0  0  0  0  0  0  0
   27.4420   15.3190    9.8350 C   0  0  0  0  0  0  0  0  0  0  0  0
   26.4030   14.8320    9.2030 N   0  0  0  0  0  0  0  0  0  0  0  0
   25.3060   15.3630    9.8430 C   0  0  0  0  0  0  0  0  0  0  0  0
   23.9390   15.2060    9.5950 C   0  0  0  0  0  0  0  0  0  0  0  0
   23.0270   15.8540   10.3710 N   0  0  0  0  0  0  0  0  0  0  0  0
   23.4670   16.6460   11.3860 C   0  0  0  0  0  0  0  0  0  0  0  0
   24.8010   16.8520   11.7220 C   0  0  0  0  0  0  0  0  0  0  0  0
   25.2860   17.7110   12.8220 C   0  0  0  0  0  0  0  0  0  0  0  0
   26.4610   18.0670   12.8300 O   0  0  0  0  0  0  0  0  0  0  0  0
   24.3950   18.0540   13.8120 N   0  0  0  0  0  0  0  0  0  0  0  0
   24.8290   18.7890   14.9960 C   0  0  1  0  0  0  0  0  0  0  0  0
   25.8670   18.0210   15.8060 C   0  0  0  0  0  0  0  0  0  0  0  0
   26.3050   18.8620   16.9960 C   0  0  0  0  0  0  0  0  0  0  0  0
   26.8200   20.2120   16.5540 C   0  0  0  0  0  0  0  0  0  0  0  0
   27.7270   20.7950   17.1410 O   0  0  0  0  0  0  0  0  0  0  0  0
   26.2010   20.7810   15.4690 N   0  0  0  0  0  0  0  0  0  0  0  0
   25.4370   20.1200   14.5430 C   0  0  0  0  0  0  0  0  0  0  0  0
   25.2480   20.5840   13.4180 O   0  0  0  0  0  0  0  0  0  0  0  0
   25.7030   16.1840   10.8930 C   0  0  0  0  0  0  0  0  0  0  0  0
   27.0770   16.1400   10.8600 N   0  0  0  0  0  0  0  0  0  0  0  0
   27.8000   11.4240    9.9710 C   0  0  0  0  0  0  0  0  0  0  0  0
   26.8070   10.7600    9.4120 N   0  0  0  0  0  0  0  0  0  0  0  0
   24.8497    9.5640    8.8806 H   0  0  0  0  0  0  0  0  0  0  0  0
   23.8507    9.4948    7.3893 H   0  0  0  0  0  0  0  0  0  0  0  0
   25.5127    8.8135    7.3893 H   0  0  0  0  0  0  0  0  0  0  0  0
   25.8163   10.8754    6.3253 H   0  0  0  0  0  0  0  0  0  0  0  0
   24.6060   11.6986    7.4002 H   0  0  0  0  0  0  0  0  0  0  0  0
   27.3707   13.2570    7.2746 H   0  0  0  0  0  0  0  0  0  0  0  0
   23.6002   14.5587    8.7727 H   0  0  0  0  0  0  0  0  0  0  0  0
   22.7072   17.1648   11.9890 H   0  0  0  0  0  0  0  0  0  0  0  0
   23.4046   17.7877   13.7163 H   0  0  0  0  0  0  0  0  0  0  0  0
   23.9525   18.9445   15.6422 H   0  0  0  0  0  0  0  0  0  0  0  0
   25.4281   17.0784   16.1648 H   0  0  0  0  0  0  0  0  0  0  0  0
   26.7383   17.8014   15.1715 H   0  0  0  0  0  0  0  0  0  0  0  0
   25.4458   19.0084   17.6670 H   0  0  0  0  0  0  0  0  0  0  0  0
   27.1180   18.3329   17.5147 H   0  0  0  0  0  0  0  0  0  0  0  0
   26.3215   21.7957   15.3392 H   0  0  0  0  0  0  0  0  0  0  0  0
   27.7159   16.6382   11.4960 H   0  0  0  0  0  0  0  0  0  0  0  0
   28.2653   11.1651   10.9335 H   0  0  0  0  0  0  0  0  0  0  0  0
  1  2  1  0
  2  3  1  0
  3  4  2  0
  4  5  1  0
  5  6  1  0
  6  7  2  0
  6  8  2  0
  6  9  1  0
  9 10  1  0
 10 11  2  0
 11 12  1  0
 12 13  2  0
 13 14  1  0
 14 15  2  0
 15 16  1  0
 16 17  1  0
 17 18  2  0
 17 19  1  0
 19 20  1  0
 20 21  1  0
 21 22  1  0
 22 23  1  0
 23 24  2  0
 23 25  1  0
 25 26  1  0
 26 27  2  0
 16 28  2  0
 28 29  1  0
  5 30  1  0
 30 31  2  0
 31  3  1  0
 29 10  1  0
 28 12  1  0
 26 20  1  0
  1 32  1  0
  1 33  1  0
  1 34  1  0
  2 35  1  0
  2 36  1  0
  4 37  1  0
 13 38  1  0
 15 39  1  0
 19 40  1  0
 20 41  1  1
 21 42  1  0
 21 43  1  0
 22 44  1  0
 22 45  1  0
 25 46  1  0
 29 47  1  0
 30 48  1  0
M  END
>  <meeko>  (630) 
{"is_sidechain": [true], "free_energy": -11.88, "intermolecular_energy": 0.0, "internal_energy": -11.88, "cluster_size": 7, "cluster_id": 1, "rank_in_cluster": 1}

>  <_RMSD_MCS_to_ref>  (630) 
0.6864579779968734

$$$$
ligand
     RDKit          3D

 47 50  0  0  0  0  0  0  0  0999 V2000
   24.8710    9.6160    7.7820 C   0  0  0  0  0  0  0  0  0  0  0  0
   25.4240   10.9650    7.3490 C   0  0  0  0  0  0  0  0  0  0  0  0
   26.5540   11.4130    8.2080 C   0  0  0  0  0  0  0  0  0  0  0  0
   27.5650   12.3070    7.9170 C   0  0  0  0  0  0  0  0  0  0  0  0
   28.3320   12.3220    9.0470 N   0  0  0  0  0  0  0  0  0  0  0  0
   29.5910   13.3900    9.3670 S   0  0  0  0  0  6  0  0  0  0  0  0
   30.5990   13.1130    8.3570 O   0  0  0  0  0  0  0  0  0  0  0  0
   29.8870   13.2260   10.7760 O   0  0  0  0  0  0  0  0  0  0  0  0
   29.0060   14.8870    9.1250 O   0  0  0  0  0  0  0  0  0  0  0  0
   27.7790   15.2380    9.4860 C   0  0  0  0  0  0  0  0  0  0  0  0
   27.5500   16.0460   10.4970 N   0  0  0  0  0  0  0  0  0  0  0  0
   26.1780   16.1640   10.5770 C   0  0  0  0  0  0  0  0  0  0  0  0
   25.2910   16.8590   11.3990 C   0  0  0  0  0  0  0  0  0  0  0  0
   25.7360   17.7320   12.5160 C   0  0  0  0  0  0  0  0  0  0  0  0
   26.8740   18.1710   12.6130 O   0  0  0  0  0  0  0  0  0  0  0  0
   24.7550   17.9970   13.4520 N   0  0  0  0  0  0  0  0  0  0  0  0
   25.0380   18.6880   14.6970 C   0  0  1  0  0  0  0  0  0  0  0  0
   26.0420   17.9270   15.5580 C   0  0  0  0  0  0  0  0  0  0  0  0
   26.3120   18.7100   16.8330 C   0  0  0  0  0  0  0  0  0  0  0  0
   26.7850   20.1120   16.5260 C   0  0  0  0  0  0  0  0  0  0  0  0
   27.5900   20.7060   17.2360 O   0  0  0  0  0  0  0  0  0  0  0  0
   26.2430   20.7140   15.4200 N   0  0  0  0  0  0  0  0  0  0  0  0
   25.6020   20.0780   14.3830 C   0  0  0  0  0  0  0  0  0  0  0  0
   25.4870   20.6200   13.2850 O   0  0  0  0  0  0  0  0  0  0  0  0
   23.9400   16.7450   11.1980 N   0  0  0  0  0  0  0  0  0  0  0  0
   23.5210   15.9490   10.1960 C   0  0  0  0  0  0  0  0  0  0  0  0
   24.2750   15.2320    9.3440 N   0  0  0  0  0  0  0  0  0  0  0  0
   25.5820   15.3900    9.5920 C   0  0  0  0  0  0  0  0  0  0  0  0
   26.6100   14.8030    8.9140 N   0  0  0  0  0  0  0  0  0  0  0  0
   27.7530   11.5350    9.9900 C   0  0  0  0  0  0  0  0  0  0  0  0
   26.6840   10.9430    9.5000 N   0  0  0  0  0  0  0  0  0  0  0  0
   24.8497    9.5640    8.8806 H   0  0  0  0  0  0  0  0  0  0  0  0
   23.8507    9.4948    7.3893 H   0  0  0  0  0  0  0  0  0  0  0  0
   25.5127    8.8135    7.3893 H   0  0  0  0  0  0  0  0  0  0  0  0
   25.7785   10.8855    6.3107 H   0  0  0  0  0  0  0  0  0  0  0  0
   24.6161   11.7058    7.4413 H   0  0  0  0  0  0  0  0  0  0  0  0
   27.7177   12.8764    6.9883 H   0  0  0  0  0  0  0  0  0  0  0  0
   23.7895   17.6939   13.2599 H   0  0  0  0  0  0  0  0  0  0  0  0
   24.0969   18.7647   15.2612 H   0  0  0  0  0  0  0  0  0  0  0  0
   25.6310   16.9394   15.8143 H   0  0  0  0  0  0  0  0  0  0  0  0
   26.9814   17.7996   15.0000 H   0  0  0  0  0  0  0  0  0  0  0  0
   25.3850   18.7655   17.4226 H   0  0  0  0  0  0  0  0  0  0  0  0
   27.1017   18.1928   17.3977 H   0  0  0  0  0  0  0  0  0  0  0  0
   26.3235   21.7391   15.3602 H   0  0  0  0  0  0  0  0  0  0  0  0
   22.4321   15.8766   10.0579 H   0  0  0  0  0  0  0  0  0  0  0  0
   26.5245   14.1532    8.1194 H   0  0  0  0  0  0  0  0  0  0  0  0
   28.1245   11.4098   11.0178 H   0  0  0  0  0  0  0  0  0  0  0  0
  1  2  1  0
  2  3  1  0
  3  4  2  0
  4  5  1  0
  5  6  1  0
  6  7  2  0
  6  8  2  0
  6  9  1  0
  9 10  1  0
 10 11  2  0
 11 12  1  0
 12 13  2  0
 13 14  1  0
 14 15  2  0
 14 16  1  0
 16 17  1  0
 17 18  1  0
 18 19  1  0
 19 20  1  0
 20 21  2  0
 20 22  1  0
 22 23  1  0
 23 24  2  0
 13 25  1  0
 25 26  2  0
 26 27  1  0
 27 28  2  0
 28 29  1  0
  5 30  1  0
 30 31  2  0
 31  3  1  0
 29 10  1  0
 28 12  1  0
 23 17  1  0
  1 32  1  0
  1 33  1  0
  1 34  1  0
  2 35  1  0
  2 36  1  0
  4 37  1  0
 16 38  1  0
 17 39  1  1
 18 40  1  0
 18 41  1  0
 19 42  1  0
 19 43  1  0
 22 44  1  0
 26 45  1  0
 29 46  1  0
 30 47  1  0
M  END
>  <meeko>  (631) 
{"is_sidechain": [true], "free_energy": -11.88, "intermolecular_energy": 0.0, "internal_energy": -11.88, "cluster_size": 13, "cluster_id": 1, "rank_in_cluster": 1}

>  <_RMSD_MCS_to_ref>  (631) 
0.6369713930433258

$$$$
ligand
     RDKit          3D

 61 65  0  0  0  0  0  0  0  0999 V2000
   24.8540    9.4020    7.6050 C   0  0  0  0  0  0  0  0  0  0  0  0
   25.5230   10.7550    7.4270 C   0  0  0  0  0  0  0  0  0  0  0  0
   25.0240   11.4750    6.2250 C   0  0  0  0  0  0  0  0  0  0  0  0
   24.9860   12.8340    5.9790 C   0  0  0  0  0  0  0  0  0  0  0  0
   24.4220   12.9350    4.7400 N   0  0  0  0  0  0  0  0  0  0  0  0
   24.2940   14.3410    3.8390 S   0  0  0  0  0  6  0  0  0  0  0  0
   25.2450   14.2360    2.7520 O   0  0  0  0  0  0  0  0  0  0  0  0
   22.8740   14.5510    3.6370 O   0  0  0  0  0  0  0  0  0  0  0  0
   24.8380   15.6790    4.8010 C   0  0  0  0  0  0  0  0  0  0  0  0
   24.0880   16.8240    4.9730 C   0  0  0  0  0  0  0  0  0  0  0  0
   24.8620   17.9580    5.9880 S   0  0  0  0  0  0  0  0  0  0  0  0
   26.1890   16.9190    6.2420 C   0  0  0  0  0  0  0  0  0  0  0  0
   26.0840   15.7440    5.5110 C   0  0  0  0  0  0  0  0  0  0  0  0
   27.1980   14.7350    5.5510 C   0  0  0  0  0  0  0  0  0  0  0  0
   28.5010   15.3760    6.0710 C   0  0  0  0  0  0  0  0  0  0  0  0
   28.2770   16.1170    7.3230 N   0  0  0  0  0  0  0  0  0  0  0  0
   27.3770   17.3000    7.1020 C   0  0  2  0  0  0  0  0  0  0  0  0
   26.8970   17.8130    8.4890 C   0  0  0  0  0  0  0  0  0  0  0  0
   27.0520   18.9830    8.8310 O   0  0  0  0  0  0  0  0  0  0  0  0
   26.2930   16.8110    9.2340 N   0  0  0  0  0  0  0  0  0  0  0  0
   25.6700   16.9050   10.4880 C   0  0  0  0  0  0  0  0  0  0  0  0
   24.3440   16.4700   10.5790 C   0  0  0  0  0  0  0  0  0  0  0  0
   23.6590   16.5330   11.7920 C   0  0  0  0  0  0  0  0  0  0  0  0
   24.2900   17.0380   12.9270 C   0  0  0  0  0  0  0  0  0  0  0  0
   25.6130   17.4960   12.8570 C   0  0  0  0  0  0  0  0  0  0  0  0
   26.3420   18.0320   14.0800 C   0  0  2  0  0  0  0  0  0  0  0  0
   25.4000   18.0360   15.2880 C   0  0  0  0  0  0  0  0  0  0  0  0
   26.1490   18.5060   16.5250 C   0  0  0  0  0  0  0  0  0  0  0  0
   26.7530   19.8700   16.3060 C   0  0  0  0  0  0  0  0  0  0  0  0
   26.9780   20.6450   17.2310 O   0  0  0  0  0  0  0  0  0  0  0  0
   27.0990   20.1850   15.0180 N   0  0  0  0  0  0  0  0  0  0  0  0
   26.9550   19.4180   13.8820 C   0  0  0  0  0  0  0  0  0  0  0  0
   27.3630   19.8480   12.8050 O   0  0  0  0  0  0  0  0  0  0  0  0
   26.2950   17.4160   11.6280 C   0  0  0  0  0  0  0  0  0  0  0  0
   24.1620   11.6900    4.2650 C   0  0  0  0  0  0  0  0  0  0  0  0
   24.5180   10.7770    5.1440 N   0  0  0  0  0  0  0  0  0  0  0  0
   24.7464    9.1845    8.6779 H   0  0  0  0  0  0  0  0  0  0  0  0
   23.8606    9.4192    7.1330 H   0  0  0  0  0  0  0  0  0  0  0  0
   25.4708    8.6230    7.1330 H   0  0  0  0  0  0  0  0  0  0  0  0
   25.3217   11.3695    8.3169 H   0  0  0  0  0  0  0  0  0  0  0  0
   26.6014   10.5835    7.2943 H   0  0  0  0  0  0  0  0  0  0  0  0
   25.3314   13.6487    6.6324 H   0  0  0  0  0  0  0  0  0  0  0  0
   23.1040   16.9877    4.5093 H   0  0  0  0  0  0  0  0  0  0  0  0
   26.9118   13.9085    6.2180 H   0  0  0  0  0  0  0  0  0  0  0  0
   27.3719   14.3620    4.5309 H   0  0  0  0  0  0  0  0  0  0  0  0
   29.2413   14.5830    6.2528 H   0  0  0  0  0  0  0  0  0  0  0  0
   28.8634   16.0844    5.3115 H   0  0  0  0  0  0  0  0  0  0  0  0
   27.8413   15.4877    8.0123 H   0  0  0  0  0  0  0  0  0  0  0  0
   27.9290   18.0921    6.5749 H   0  0  0  0  0  0  0  0  0  0  0  0
   26.3031   15.8723    8.8101 H   0  0  0  0  0  0  0  0  0  0  0  0
   23.8371   16.0749    9.6863 H   0  0  0  0  0  0  0  0  0  0  0  0
   22.6179   16.1831   11.8530 H   0  0  0  0  0  0  0  0  0  0  0  0
   23.7472   17.0775   13.8829 H   0  0  0  0  0  0  0  0  0  0  0  0
   27.1882   17.3518   14.2569 H   0  0  0  0  0  0  0  0  0  0  0  0
   24.5574   18.7152   15.0915 H   0  0  0  0  0  0  0  0  0  0  0  0
   25.0232   17.0165   15.4576 H   0  0  0  0  0  0  0  0  0  0  0  0
   25.4492   18.5544   17.3723 H   0  0  0  0  0  0  0  0  0  0  0  0
   26.9602   17.7934   16.7350 H   0  0  0  0  0  0  0  0  0  0  0  0
   27.5210   21.1146   14.8813 H   0  0  0  0  0  0  0  0  0  0  0  0
   27.3374   17.7616   11.5644 H   0  0  0  0  0  0  0  0  0  0  0  0
   23.7161   11.4743    3.2828 H   0  0  0  0  0  0  0  0  0  0  0  0
  1  2  1  0
  2  3  1  0
  3  4  2  0
  4  5  1  0
  5  6  1  0
  6  7  2  0
  6  8  2  0
  6  9  1  0
  9 10  2  0
 10 11  1  0
 11 12  1  0
 12 13  2  0
 13 14  1  0
 14 15  1  0
 15 16  1  0
 16 17  1  0
 17 18  1  0
 18 19  2  0
 18 20  1  0
 20 21  1  0
 21 22  2  0
 22 23  1  0
 23 24  2  0
 24 25  1  0
 25 26  1  0
 26 27  1  0
 27 28  1  0
 28 29  1  0
 29 30  2  0
 29 31  1  0
 31 32  1  0
 32 33  2  0
 25 34  2  0
  5 35  1  0
 35 36  2  0
 36  3  1  0
 13  9  1  0
 34 21  1  0
 17 12  1  0
 32 26  1  0
  1 37  1  0
  1 38  1  0
  1 39  1  0
  2 40  1  0
  2 41  1  0
  4 42  1  0
 10 43  1  0
 14 44  1  0
 14 45  1  0
 15 46  1  0
 15 47  1  0
 16 48  1  0
 17 49  1  6
 20 50  1  0
 22 51  1  0
 23 52  1  0
 24 53  1  0
 26 54  1  1
 27 55  1  0
 27 56  1  0
 28 57  1  0
 28 58  1  0
 31 59  1  0
 34 60  1  0
 35 61  1  0
M  END
>  <meeko>  (632) 
{"is_sidechain": [true], "free_energy": -11.87, "intermolecular_energy": 0.0, "internal_energy": -11.87, "cluster_size": 20, "cluster_id": 1, "rank_in_cluster": 1}

>  <_RMSD_MCS_to_ref>  (632) 
1.5064034984027341

$$$$
ligand
     RDKit          3D

 56 60  0  0  0  0  0  0  0  0999 V2000
   24.8540    9.4020    7.6050 C   0  0  0  0  0  0  0  0  0  0  0  0
   25.5230   10.7550    7.4270 C   0  0  0  0  0  0  0  0  0  0  0  0
   24.8340   11.5980    6.4120 C   0  0  0  0  0  0  0  0  0  0  0  0
   25.3840   12.4580    5.4830 C   0  0  0  0  0  0  0  0  0  0  0  0
   24.3080   12.9480    4.8020 N   0  0  0  0  0  0  0  0  0  0  0  0
   24.3330   14.1810    3.6620 S   0  0  0  0  0  6  0  0  0  0  0  0
   22.9440   14.5460    3.4570 O   0  0  0  0  0  0  0  0  0  0  0  0
   25.1680   13.7090    2.5750 O   0  0  0  0  0  0  0  0  0  0  0  0
   25.1500   15.5140    4.4930 C   0  0  0  0  0  0  0  0  0  0  0  0
   25.8060   16.4890    3.7240 C   0  0  0  0  0  0  0  0  0  0  0  0
   26.4460   17.5720    4.3450 C   0  0  0  0  0  0  0  0  0  0  0  0
   26.4490   17.6850    5.7340 C   0  0  0  0  0  0  0  0  0  0  0  0
   25.8220   16.6970    6.4680 C   0  0  0  0  0  0  0  0  0  0  0  0
   25.1800   15.6170    5.8770 C   0  0  0  0  0  0  0  0  0  0  0  0
   24.5710   14.7890    6.9500 C   0  0  0  0  0  0  0  0  0  0  0  0
   25.2830   15.3790    8.1760 C   0  0  2  0  0  0  0  0  0  0  0  0
   24.3790   15.5120    9.3690 C   0  0  0  0  0  0  0  0  0  0  0  0
   24.6800   16.1550   10.4820 N   0  0  0  0  0  0  0  0  0  0  0  0
   23.6260   16.0570   11.3950 C   0  0  0  0  0  0  0  0  0  0  0  0
   23.7120   16.6610   12.7270 C   0  0  0  0  0  0  0  0  0  0  0  0
   22.8850   16.4690   13.6130 O   0  0  0  0  0  0  0  0  0  0  0  0
   24.8110   17.4690   12.8790 N   0  0  0  0  0  0  0  0  0  0  0  0
   25.0430   18.2620   14.0700 C   0  0  1  0  0  0  0  0  0  0  0  0
   26.0870   17.6240   14.9820 C   0  0  0  0  0  0  0  0  0  0  0  0
   26.3060   18.5080   16.1990 C   0  0  0  0  0  0  0  0  0  0  0  0
   26.6980   19.9100   15.7960 C   0  0  0  0  0  0  0  0  0  0  0  0
   27.4470   20.6050   16.4750 O   0  0  0  0  0  0  0  0  0  0  0  0
   26.1430   20.3940   14.6380 N   0  0  0  0  0  0  0  0  0  0  0  0
   25.5180   19.6590   13.6600 C   0  0  0  0  0  0  0  0  0  0  0  0
   25.3390   20.1270   12.5370 O   0  0  0  0  0  0  0  0  0  0  0  0
   22.5300   15.3550   10.9320 C   0  0  0  0  0  0  0  0  0  0  0  0
   22.8160   14.7910    9.3430 S   0  0  0  0  0  0  0  0  0  0  0  0
   25.7630   16.7070    7.8380 O   0  0  0  0  0  0  0  0  0  0  0  0
   23.1710   12.4300    5.3330 C   0  0  0  0  0  0  0  0  0  0  0  0
   23.4560   11.5980    6.3120 N   0  0  0  0  0  0  0  0  0  0  0  0
   24.7464    9.1845    8.6779 H   0  0  0  0  0  0  0  0  0  0  0  0
   23.8606    9.4192    7.1330 H   0  0  0  0  0  0  0  0  0  0  0  0
   25.4708    8.6230    7.1330 H   0  0  0  0  0  0  0  0  0  0  0  0
   25.5131   11.2839    8.3915 H   0  0  0  0  0  0  0  0  0  0  0  0
   26.5503   10.5783    7.0756 H   0  0  0  0  0  0  0  0  0  0  0  0
   26.4470   12.6943    5.3272 H   0  0  0  0  0  0  0  0  0  0  0  0
   25.8181   16.4029    2.6274 H   0  0  0  0  0  0  0  0  0  0  0  0
   26.9479   18.3356    3.7326 H   0  0  0  0  0  0  0  0  0  0  0  0
   26.9366   18.5364    6.2315 H   0  0  0  0  0  0  0  0  0  0  0  0
   23.4812   14.9279    7.0044 H   0  0  0  0  0  0  0  0  0  0  0  0
   24.6902   13.7030    6.8222 H   0  0  0  0  0  0  0  0  0  0  0  0
   26.0997   14.6910    8.4398 H   0  0  0  0  0  0  0  0  0  0  0  0
   25.4999   17.5138   12.1146 H   0  0  0  0  0  0  0  0  0  0  0  0
   24.0968   18.3221   14.6277 H   0  0  0  0  0  0  0  0  0  0  0  0
   25.7340   16.6341   15.3068 H   0  0  0  0  0  0  0  0  0  0  0  0
   27.0343   17.5143   14.4337 H   0  0  0  0  0  0  0  0  0  0  0  0
   25.3750   18.5503   16.7833 H   0  0  0  0  0  0  0  0  0  0  0  0
   27.1223   18.0780   16.7979 H   0  0  0  0  0  0  0  0  0  0  0  0
   26.2009   21.4112   14.4868 H   0  0  0  0  0  0  0  0  0  0  0  0
   21.6059   15.1834   11.5034 H   0  0  0  0  0  0  0  0  0  0  0  0
   22.1534   12.6720    4.9924 H   0  0  0  0  0  0  0  0  0  0  0  0
  1  2  1  0
  2  3  1  0
  3  4  2  0
  4  5  1  0
  5  6  1  0
  6  7  2  0
  6  8  2  0
  6  9  1  0
  9 10  2  0
 10 11  1  0
 11 12  2  0
 12 13  1  0
 13 14  2  0
 14 15  1  0
 15 16  1  0
 16 17  1  0
 17 18  2  0
 18 19  1  0
 19 20  1  0
 20 21  2  0
 20 22  1  0
 22 23  1  0
 23 24  1  0
 24 25  1  0
 25 26  1  0
 26 27  2  0
 26 28  1  0
 28 29  1  0
 29 30  2  0
 19 31  2  0
 31 32  1  0
 16 33  1  0
  5 34  1  0
 34 35  2  0
 35  3  1  0
 14  9  1  0
 32 17  1  0
 33 13  1  0
 29 23  1  0
  1 36  1  0
  1 37  1  0
  1 38  1  0
  2 39  1  0
  2 40  1  0
  4 41  1  0
 10 42  1  0
 11 43  1  0
 12 44  1  0
 15 45  1  0
 15 46  1  0
 16 47  1  1
 22 48  1  0
 23 49  1  1
 24 50  1  0
 24 51  1  0
 25 52  1  0
 25 53  1  0
 28 54  1  0
 31 55  1  0
 34 56  1  0
M  END
>  <meeko>  (633) 
{"is_sidechain": [true], "free_energy": -11.86, "intermolecular_energy": 0.0, "internal_energy": -11.86, "cluster_size": 13, "cluster_id": 1, "rank_in_cluster": 1}

>  <_RMSD_MCS_to_ref>  (633) 
0.8393012305218877

$$$$
ligand
     RDKit          3D

 61 66  0  0  0  0  0  0  0  0999 V2000
   24.8710    9.6160    7.7820 C   0  0  0  0  0  0  0  0  0  0  0  0
   25.4240   10.9650    7.3490 C   0  0  0  0  0  0  0  0  0  0  0  0
   26.9050   10.9420    7.1960 C   0  0  0  0  0  0  0  0  0  0  0  0
   27.8630   11.6220    7.9210 C   0  0  0  0  0  0  0  0  0  0  0  0
   29.0480   11.2090    7.3800 N   0  0  0  0  0  0  0  0  0  0  0  0
   30.5620   11.8810    7.6950 S   0  0  0  0  0  6  0  0  0  0  0  0
   31.3430   11.6070    6.4990 O   0  0  0  0  0  0  0  0  0  0  0  0
   30.9370   11.3470    8.9890 O   0  0  0  0  0  0  0  0  0  0  0  0
   30.3210   13.4910    7.8070 O   0  0  0  0  0  0  0  0  0  0  0  0
   29.1010   13.9730    8.2390 C   0  0  0  0  0  0  0  0  0  0  0  0
   28.8100   13.8000    9.5950 C   0  0  0  0  0  0  0  0  0  0  0  0
   27.5930   14.2200   10.1230 C   0  0  0  0  0  0  0  0  0  0  0  0
   26.6120   14.8100    9.3050 C   0  0  0  0  0  0  0  0  0  0  0  0
   25.3270   15.2390    9.8500 C   0  0  0  0  0  0  0  0  0  0  0  0
   24.1170   14.8980    9.2120 C   0  0  0  0  0  0  0  0  0  0  0  0
   22.8710   15.3170    9.7160 C   0  0  0  0  0  0  0  0  0  0  0  0
   22.8000   16.0930   10.8720 C   0  0  0  0  0  0  0  0  0  0  0  0
   23.9920   16.4200   11.4880 C   0  0  0  0  0  0  0  0  0  0  0  0
   25.2350   16.0110   11.0030 C   0  0  0  0  0  0  0  0  0  0  0  0
   26.3210   16.5490   11.8780 C   0  0  0  0  0  0  0  0  0  0  0  0
   25.5760   17.2130   12.9420 N   0  0  0  0  0  0  0  0  0  0  0  0
   26.1930   18.1050   13.9150 C   0  0  1  0  0  0  0  0  0  0  0  0
   25.4490   19.4310   14.0430 C   0  0  0  0  0  0  0  0  0  0  0  0
   26.1980   20.3400   15.0050 C   0  0  0  0  0  0  0  0  0  0  0  0
   26.3960   19.6720   16.3450 C   0  0  0  0  0  0  0  0  0  0  0  0
   26.3640   20.2960   17.4020 O   0  0  0  0  0  0  0  0  0  0  0  0
   26.6370   18.3210   16.3280 N   0  0  0  0  0  0  0  0  0  0  0  0
   26.3090   17.4590   15.3060 C   0  0  0  0  0  0  0  0  0  0  0  0
   26.1250   16.2670   15.5390 O   0  0  0  0  0  0  0  0  0  0  0  0
   24.2120   17.2220   12.6960 C   0  0  0  0  0  0  0  0  0  0  0  0
   23.3400   17.7760   13.3370 O   0  0  0  0  0  0  0  0  0  0  0  0
   26.8810   14.9660    7.9220 C   0  0  0  0  0  0  0  0  0  0  0  0
   26.1410   15.4980    6.8220 C   0  0  0  0  0  0  0  0  0  0  0  0
   26.9120   15.3700    5.6910 C   0  0  0  0  0  0  0  0  0  0  0  0
   28.0940   14.7860    6.0550 N   0  0  0  0  0  0  0  0  0  0  0  0
   28.1150   14.5400    7.4140 C   0  0  0  0  0  0  0  0  0  0  0  0
   28.7930   10.3890    6.3280 C   0  0  0  0  0  0  0  0  0  0  0  0
   27.4980   10.1840    6.2060 N   0  0  0  0  0  0  0  0  0  0  0  0
   24.8497    9.5640    8.8806 H   0  0  0  0  0  0  0  0  0  0  0  0
   23.8507    9.4948    7.3893 H   0  0  0  0  0  0  0  0  0  0  0  0
   25.5127    8.8135    7.3893 H   0  0  0  0  0  0  0  0  0  0  0  0
   24.9723   11.2401    6.3845 H   0  0  0  0  0  0  0  0  0  0  0  0
   25.1762   11.6985    8.1304 H   0  0  0  0  0  0  0  0  0  0  0  0
   27.7080   12.3335    8.7455 H   0  0  0  0  0  0  0  0  0  0  0  0
   29.5527   13.3257   10.2534 H   0  0  0  0  0  0  0  0  0  0  0  0
   27.3948   14.0887   11.1970 H   0  0  0  0  0  0  0  0  0  0  0  0
   24.1472   14.2887    8.2966 H   0  0  0  0  0  0  0  0  0  0  0  0
   21.9465   15.0299    9.1937 H   0  0  0  0  0  0  0  0  0  0  0  0
   21.8346   16.4308   11.2767 H   0  0  0  0  0  0  0  0  0  0  0  0
   26.9464   15.7375   12.2785 H   0  0  0  0  0  0  0  0  0  0  0  0
   27.0166   17.2174   11.3495 H   0  0  0  0  0  0  0  0  0  0  0  0
   27.2034   18.3023   13.5275 H   0  0  0  0  0  0  0  0  0  0  0  0
   25.3861   19.9132   13.0563 H   0  0  0  0  0  0  0  0  0  0  0  0
   24.4343   19.2473   14.4259 H   0  0  0  0  0  0  0  0  0  0  0  0
   27.1815   20.5834   14.5766 H   0  0  0  0  0  0  0  0  0  0  0  0
   25.6038   21.2534   15.1554 H   0  0  0  0  0  0  0  0  0  0  0  0
   27.1042   17.9166   17.1521 H   0  0  0  0  0  0  0  0  0  0  0  0
   25.1320   15.9334    6.8712 H   0  0  0  0  0  0  0  0  0  0  0  0
   26.6288   15.6816    4.6748 H   0  0  0  0  0  0  0  0  0  0  0  0
   28.8616   14.5610    5.4061 H   0  0  0  0  0  0  0  0  0  0  0  0
   29.5609    9.9565    5.6698 H   0  0  0  0  0  0  0  0  0  0  0  0
  1  2  1  0
  2  3  1  0
  3  4  2  0
  4  5  1  0
  5  6  1  0
  6  7  2  0
  6  8  2  0
  6  9  1  0
  9 10  1  0
 10 11  2  0
 11 12  1  0
 12 13  2  0
 13 14  1  0
 14 15  2  0
 15 16  1  0
 16 17  2  0
 17 18  1  0
 18 19  2  0
 19 20  1  0
 20 21  1  0
 21 22  1  0
 22 23  1  0
 23 24  1  0
 24 25  1  0
 25 26  2  0
 25 27  1  0
 27 28  1  0
 28 29  2  0
 21 30  1  0
 30 31  2  0
 13 32  1  0
 32 33  1  0
 33 34  2  0
 34 35  1  0
 35 36  1  0
  5 37  1  0
 37 38  2  0
 38  3  1  0
 36 10  1  0
 19 14  1  0
 28 22  1  0
 36 32  2  0
 30 18  1  0
  1 39  1  0
  1 40  1  0
  1 41  1  0
  2 42  1  0
  2 43  1  0
  4 44  1  0
 11 45  1  0
 12 46  1  0
 15 47  1  0
 16 48  1  0
 17 49  1  0
 20 50  1  0
 20 51  1  0
 22 52  1  6
 23 53  1  0
 23 54  1  0
 24 55  1  0
 24 56  1  0
 27 57  1  0
 33 58  1  0
 34 59  1  0
 35 60  1  0
 37 61  1  0
M  END
>  <meeko>  (634) 
{"is_sidechain": [true], "free_energy": -11.86, "intermolecular_energy": 0.0, "internal_energy": -11.86, "cluster_size": 15, "cluster_id": 1, "rank_in_cluster": 1}

>  <_RMSD_MCS_to_ref>  (634) 
1.9014815130430387

$$$$
ligand
     RDKit          3D

 61 66  0  0  0  0  0  0  0  0999 V2000
   24.8710    9.6160    7.7820 C   0  0  0  0  0  0  0  0  0  0  0  0
   25.4240   10.9650    7.3490 C   0  0  0  0  0  0  0  0  0  0  0  0
   25.0020   11.3270    5.9680 C   0  0  0  0  0  0  0  0  0  0  0  0
   24.1110   12.2980    5.5580 C   0  0  0  0  0  0  0  0  0  0  0  0
   24.0790   12.1720    4.1990 N   0  0  0  0  0  0  0  0  0  0  0  0
   23.3700   13.2670    3.1260 S   0  0  0  0  0  6  0  0  0  0  0  0
   23.7310   12.7650    1.8110 O   0  0  0  0  0  0  0  0  0  0  0  0
   21.9800   13.3300    3.5430 O   0  0  0  0  0  0  0  0  0  0  0  0
   24.1430   14.8050    3.4140 C   0  0  0  0  0  0  0  0  0  0  0  0
   24.1940   15.8380    2.3850 C   0  0  0  0  0  0  0  0  0  0  0  0
   24.7660   17.0330    2.6240 C   0  0  0  0  0  0  0  0  0  0  0  0
   25.3440   17.3030    3.8970 C   0  0  0  0  0  0  0  0  0  0  0  0
   25.9360   18.3810    4.3570 N   0  0  0  0  0  0  0  0  0  0  0  0
   26.3100   18.0640    5.6380 C   0  0  0  0  0  0  0  0  0  0  0  0
   25.9290   16.7810    5.9880 C   0  0  0  0  0  0  0  0  0  0  0  0
   26.0950   16.0310    7.1110 N   0  0  0  0  0  0  0  0  0  0  0  0
   25.5970   16.2980    8.4070 C   0  0  0  0  0  0  0  0  0  0  0  0
   24.4420   15.5990    8.8370 C   0  0  0  0  0  0  0  0  0  0  0  0
   23.9080   15.7770   10.1170 C   0  0  0  0  0  0  0  0  0  0  0  0
   24.5550   16.6630   10.9520 C   0  0  0  0  0  0  0  0  0  0  0  0
   25.6950   17.3600   10.5650 C   0  0  0  0  0  0  0  0  0  0  0  0
   26.2280   17.1840    9.2980 C   0  0  0  0  0  0  0  0  0  0  0  0
   26.1700   18.2240   11.6850 C   0  0  0  0  0  0  0  0  0  0  0  0
   25.1430   18.0210   12.7000 N   0  0  0  0  0  0  0  0  0  0  0  0
   25.2830   18.4590   14.0840 C   0  0  2  0  0  0  0  0  0  0  0  0
   26.2300   19.6460   14.2270 C   0  0  0  0  0  0  0  0  0  0  0  0
   26.2520   20.1030   15.6790 C   0  0  0  0  0  0  0  0  0  0  0  0
   26.6270   18.9660   16.6020 C   0  0  0  0  0  0  0  0  0  0  0  0
   27.3030   19.1360   17.6110 O   0  0  0  0  0  0  0  0  0  0  0  0
   26.1560   17.7220   16.2660 N   0  0  0  0  0  0  0  0  0  0  0  0
   25.7580   17.3260   15.0090 C   0  0  0  0  0  0  0  0  0  0  0  0
   25.8060   16.1400   14.6890 O   0  0  0  0  0  0  0  0  0  0  0  0
   24.2270   17.0470   12.3290 C   0  0  0  0  0  0  0  0  0  0  0  0
   23.3180   16.5810   12.9890 O   0  0  0  0  0  0  0  0  0  0  0  0
   25.3050   16.2860    4.8510 N   0  0  0  0  0  0  0  0  0  0  0  0
   24.7020   15.0470    4.6160 C   0  0  0  0  0  0  0  0  0  0  0  0
   24.9630   11.2140    3.8200 C   0  0  0  0  0  0  0  0  0  0  0  0
   25.5340   10.6700    4.8750 N   0  0  0  0  0  0  0  0  0  0  0  0
   24.8497    9.5640    8.8806 H   0  0  0  0  0  0  0  0  0  0  0  0
   23.8507    9.4948    7.3893 H   0  0  0  0  0  0  0  0  0  0  0  0
   25.5127    8.8135    7.3893 H   0  0  0  0  0  0  0  0  0  0  0  0
   25.0614   11.7365    8.0442 H   0  0  0  0  0  0  0  0  0  0  0  0
   26.5220   10.9003    7.3613 H   0  0  0  0  0  0  0  0  0  0  0  0
   23.5537   13.0108    6.1836 H   0  0  0  0  0  0  0  0  0  0  0  0
   23.7571   15.6367    1.3958 H   0  0  0  0  0  0  0  0  0  0  0  0
   24.7869   17.8005    1.8363 H   0  0  0  0  0  0  0  0  0  0  0  0
   26.8495   18.7494    6.3082 H   0  0  0  0  0  0  0  0  0  0  0  0
   26.6477   15.1684    7.0046 H   0  0  0  0  0  0  0  0  0  0  0  0
   23.9523   14.8976    8.1454 H   0  0  0  0  0  0  0  0  0  0  0  0
   23.0096   15.2330   10.4440 H   0  0  0  0  0  0  0  0  0  0  0  0
   27.1329   17.7303    8.9933 H   0  0  0  0  0  0  0  0  0  0  0  0
   27.1563   17.8983   12.0472 H   0  0  0  0  0  0  0  0  0  0  0  0
   26.3010   19.2782   11.3995 H   0  0  0  0  0  0  0  0  0  0  0  0
   24.2742   18.7722   14.3910 H   0  0  0  0  0  0  0  0  0  0  0  0
   27.2432   19.3461   13.9212 H   0  0  0  0  0  0  0  0  0  0  0  0
   25.8841   20.4712   13.5872 H   0  0  0  0  0  0  0  0  0  0  0  0
   26.9879   20.9131   15.7895 H   0  0  0  0  0  0  0  0  0  0  0  0
   25.2457   20.4552   15.9496 H   0  0  0  0  0  0  0  0  0  0  0  0
   26.0948   17.0232   17.0202 H   0  0  0  0  0  0  0  0  0  0  0  0
   24.6840   14.2786    5.4030 H   0  0  0  0  0  0  0  0  0  0  0  0
   25.1730   10.9316    2.7778 H   0  0  0  0  0  0  0  0  0  0  0  0
  1  2  1  0
  2  3  1  0
  3  4  2  0
  4  5  1  0
  5  6  1  0
  6  7  2  0
  6  8  2  0
  6  9  1  0
  9 10  1  0
 10 11  2  0
 11 12  1  0
 12 13  2  0
 13 14  1  0
 14 15  2  0
 15 16  1  0
 16 17  1  0
 17 18  2  0
 18 19  1  0
 19 20  2  0
 20 21  1  0
 21 22  2  0
 21 23  1  0
 23 24  1  0
 24 25  1  0
 25 26  1  0
 26 27  1  0
 27 28  1  0
 28 29  2  0
 28 30  1  0
 30 31  1  0
 31 32  2  0
 24 33  1  0
 33 34  2  0
 15 35  1  0
 35 36  1  0
  5 37  1  0
 37 38  2  0
 38  3  1  0
 36  9  2  0
 35 12  1  0
 22 17  1  0
 31 25  1  0
 33 20  1  0
  1 39  1  0
  1 40  1  0
  1 41  1  0
  2 42  1  0
  2 43  1  0
  4 44  1  0
 10 45  1  0
 11 46  1  0
 14 47  1  0
 16 48  1  0
 18 49  1  0
 19 50  1  0
 22 51  1  0
 23 52  1  0
 23 53  1  0
 25 54  1  1
 26 55  1  0
 26 56  1  0
 27 57  1  0
 27 58  1  0
 30 59  1  0
 36 60  1  0
 37 61  1  0
M  END
>  <meeko>  (635) 
{"is_sidechain": [true], "free_energy": -11.86, "intermolecular_energy": 0.0, "internal_energy": -11.86, "cluster_size": 16, "cluster_id": 1, "rank_in_cluster": 1}

>  <_RMSD_MCS_to_ref>  (635) 
1.7681452460448805

$$$$
ligand
     RDKit          3D

 46 49  0  0  0  0  0  0  0  0999 V2000
   24.8710    9.6160    7.7820 C   0  0  0  0  0  0  0  0  0  0  0  0
   25.4240   10.9650    7.3490 C   0  0  0  0  0  0  0  0  0  0  0  0
   26.4750   11.4630    8.2770 C   0  0  0  0  0  0  0  0  0  0  0  0
   27.3020   12.5620    8.1450 C   0  0  0  0  0  0  0  0  0  0  0  0
   28.0750   12.5350    9.2710 N   0  0  0  0  0  0  0  0  0  0  0  0
   29.2280   13.6920    9.6910 S   0  0  0  0  0  6  0  0  0  0  0  0
   29.8030   13.2510   10.9480 O   0  0  0  0  0  0  0  0  0  0  0  0
   30.0590   13.7960    8.5020 O   0  0  0  0  0  0  0  0  0  0  0  0
   28.4860   15.1280    9.8900 O   0  0  0  0  0  0  0  0  0  0  0  0
   27.1580   15.2100   10.0470 C   0  0  0  0  0  0  0  0  0  0  0  0
   26.5970   15.7790   11.1760 C   0  0  0  0  0  0  0  0  0  0  0  0
   25.2500   15.6900   10.9680 N   0  0  0  0  0  0  0  0  0  0  0  0
   24.0820   16.0230   11.6300 C   0  0  0  0  0  0  0  0  0  0  0  0
   24.0400   16.7110   12.9400 C   0  0  0  0  0  0  0  0  0  0  0  0
   23.0570   16.6300   13.6660 O   0  0  0  0  0  0  0  0  0  0  0  0
   25.1420   17.4650   13.2570 N   0  0  0  0  0  0  0  0  0  0  0  0
   25.1620   18.3150   14.4420 C   0  0  1  0  0  0  0  0  0  0  0  0
   25.9440   17.6920   15.5920 C   0  0  0  0  0  0  0  0  0  0  0  0
   25.9630   18.6540   16.7710 C   0  0  0  0  0  0  0  0  0  0  0  0
   26.5220   20.0000   16.3720 C   0  0  0  0  0  0  0  0  0  0  0  0
   27.1900   20.6900   17.1360 O   0  0  0  0  0  0  0  0  0  0  0  0
   26.2210   20.4390   15.1070 N   0  0  0  0  0  0  0  0  0  0  0  0
   25.8130   19.6490   14.0640 C   0  0  0  0  0  0  0  0  0  0  0  0
   25.9600   20.0020   12.8930 O   0  0  0  0  0  0  0  0  0  0  0  0
   23.0010   15.6920   10.8940 C   0  0  0  0  0  0  0  0  0  0  0  0
   23.4100   14.9200    9.3520 S   0  0  0  0  0  0  0  0  0  0  0  0
   25.0860   15.0940    9.7530 C   0  0  0  0  0  0  0  0  0  0  0  0
   26.2040   14.7870    9.1570 N   0  0  0  0  0  0  0  0  0  0  0  0
   27.6890   11.4950   10.0530 C   0  0  0  0  0  0  0  0  0  0  0  0
   26.7300   10.8080    9.4660 N   0  0  0  0  0  0  0  0  0  0  0  0
   24.8497    9.5640    8.8806 H   0  0  0  0  0  0  0  0  0  0  0  0
   23.8507    9.4948    7.3893 H   0  0  0  0  0  0  0  0  0  0  0  0
   25.5127    8.8135    7.3893 H   0  0  0  0  0  0  0  0  0  0  0  0
   25.8577   10.8642    6.3432 H   0  0  0  0  0  0  0  0  0  0  0  0
   24.5956   11.6887    7.3557 H   0  0  0  0  0  0  0  0  0  0  0  0
   27.3312   13.2913    7.3221 H   0  0  0  0  0  0  0  0  0  0  0  0
   27.1181   16.2067   12.0452 H   0  0  0  0  0  0  0  0  0  0  0  0
   25.9708   17.4299   12.6464 H   0  0  0  0  0  0  0  0  0  0  0  0
   24.1252   18.4504   14.7836 H   0  0  0  0  0  0  0  0  0  0  0  0
   25.4632   16.7501   15.8948 H   0  0  0  0  0  0  0  0  0  0  0  0
   26.9752   17.4889   15.2672 H   0  0  0  0  0  0  0  0  0  0  0  0
   24.9357   18.7879   17.1409 H   0  0  0  0  0  0  0  0  0  0  0  0
   26.6066   18.2293   17.5555 H   0  0  0  0  0  0  0  0  0  0  0  0
   26.3093   21.4491   14.9259 H   0  0  0  0  0  0  0  0  0  0  0  0
   21.9675   15.8825   11.2189 H   0  0  0  0  0  0  0  0  0  0  0  0
   28.1167   11.2588   11.0385 H   0  0  0  0  0  0  0  0  0  0  0  0
  1  2  1  0
  2  3  1  0
  3  4  2  0
  4  5  1  0
  5  6  1  0
  6  7  2  0
  6  8  2  0
  6  9  1  0
  9 10  1  0
 10 11  2  0
 11 12  1  0
 12 13  1  0
 13 14  1  0
 14 15  2  0
 14 16  1  0
 16 17  1  0
 17 18  1  0
 18 19  1  0
 19 20  1  0
 20 21  2  0
 20 22  1  0
 22 23  1  0
 23 24  2  0
 13 25  2  0
 25 26  1  0
 26 27  1  0
 27 28  2  0
  5 29  1  0
 29 30  2  0
 30  3  1  0
 28 10  1  0
 27 12  1  0
 23 17  1  0
  1 31  1  0
  1 32  1  0
  1 33  1  0
  2 34  1  0
  2 35  1  0
  4 36  1  0
 11 37  1  0
 16 38  1  0
 17 39  1  1
 18 40  1  0
 18 41  1  0
 19 42  1  0
 19 43  1  0
 22 44  1  0
 25 45  1  0
 29 46  1  0
M  END
>  <meeko>  (636) 
{"is_sidechain": [true], "free_energy": -11.86, "intermolecular_energy": 0.0, "internal_energy": -11.86, "cluster_size": 17, "cluster_id": 1, "rank_in_cluster": 1}

>  <_RMSD_MCS_to_ref>  (636) 
0.6724542115762725

$$$$
ligand
     RDKit          3D

 53 57  0  0  0  0  0  0  0  0999 V2000
   24.8540    9.4010    7.6050 C   0  0  0  0  0  0  0  0  0  0  0  0
   25.5230   10.7560    7.4270 C   0  0  0  0  0  0  0  0  0  0  0  0
   27.0070   10.6550    7.4560 C   0  0  0  0  0  0  0  0  0  0  0  0
   27.9480   11.6340    7.2080 C   0  0  0  0  0  0  0  0  0  0  0  0
   29.1490   11.0080    7.3920 N   0  0  0  0  0  0  0  0  0  0  0  0
   30.6160   11.7920    7.6600 S   0  0  0  0  0  6  0  0  0  0  0  0
   31.3410   10.9860    8.6200 O   0  0  0  0  0  0  0  0  0  0  0  0
   31.1350   12.1550    6.3580 O   0  0  0  0  0  0  0  0  0  0  0  0
   30.2190   13.3190    8.4860 C   0  0  0  0  0  0  0  0  0  0  0  0
   30.9900   14.3970    8.9000 C   0  0  0  0  0  0  0  0  0  0  0  0
   30.1160   15.3470    9.4920 C   0  0  0  0  0  0  0  0  0  0  0  0
   28.8480   14.8110    9.4170 C   0  0  0  0  0  0  0  0  0  0  0  0
   27.5140   15.2470    9.8190 C   0  0  0  0  0  0  0  0  0  0  0  0
   27.3450   16.2810   10.7400 C   0  0  0  0  0  0  0  0  0  0  0  0
   26.0550   16.6790   11.1020 C   0  0  0  0  0  0  0  0  0  0  0  0
   25.8090   17.7710   12.0700 C   0  0  0  0  0  0  0  0  0  0  0  0
   25.5520   18.9000   11.6740 O   0  0  0  0  0  0  0  0  0  0  0  0
   25.9090   17.4410   13.4010 N   0  0  0  0  0  0  0  0  0  0  0  0
   25.7890   18.4460   14.4510 C   0  0  1  0  0  0  0  0  0  0  0  0
   25.9790   17.8430   15.8380 C   0  0  0  0  0  0  0  0  0  0  0  0
   25.8950   18.9430   16.8840 C   0  0  0  0  0  0  0  0  0  0  0  0
   26.9000   20.0380   16.6100 C   0  0  0  0  0  0  0  0  0  0  0  0
   27.4320   20.6830   17.5090 O   0  0  0  0  0  0  0  0  0  0  0  0
   27.1680   20.3100   15.2920 N   0  0  0  0  0  0  0  0  0  0  0  0
   26.8560   19.5190   14.2140 C   0  0  0  0  0  0  0  0  0  0  0  0
   27.3920   19.6890   13.1190 O   0  0  0  0  0  0  0  0  0  0  0  0
   24.9820   15.9770   10.5360 C   0  0  0  0  0  0  0  0  0  0  0  0
   23.5740   15.9730   10.5890 C   0  0  0  0  0  0  0  0  0  0  0  0
   23.0370   15.0500    9.7870 N   0  0  0  0  0  0  0  0  0  0  0  0
   24.1180   14.4150    9.1860 O   0  0  0  0  0  0  0  0  0  0  0  0
   25.2820   14.9680    9.6350 C   0  0  0  0  0  0  0  0  0  0  0  0
   26.5030   14.5660    9.2350 N   0  0  0  0  0  0  0  0  0  0  0  0
   28.9130   13.5910    8.8200 O   0  0  0  0  0  0  0  0  0  0  0  0
   28.9180    9.7200    7.7680 C   0  0  0  0  0  0  0  0  0  0  0  0
   27.6250    9.4720    7.8120 N   0  0  0  0  0  0  0  0  0  0  0  0
   24.7465    9.1833    8.6779 H   0  0  0  0  0  0  0  0  0  0  0  0
   23.8606    9.4177    7.1329 H   0  0  0  0  0  0  0  0  0  0  0  0
   25.4713    8.6225    7.1329 H   0  0  0  0  0  0  0  0  0  0  0  0
   25.2150   11.1794    6.4596 H   0  0  0  0  0  0  0  0  0  0  0  0
   25.2107   11.4005    8.2619 H   0  0  0  0  0  0  0  0  0  0  0  0
   27.7711   12.6823    6.9257 H   0  0  0  0  0  0  0  0  0  0  0  0
   32.0799   14.4970    8.7895 H   0  0  0  0  0  0  0  0  0  0  0  0
   30.3956   16.3188    9.9250 H   0  0  0  0  0  0  0  0  0  0  0  0
   28.2216   16.7801   11.1787 H   0  0  0  0  0  0  0  0  0  0  0  0
   26.0729   16.4585   13.6633 H   0  0  0  0  0  0  0  0  0  0  0  0
   24.7773   18.8761   14.4116 H   0  0  0  0  0  0  0  0  0  0  0  0
   25.1916   17.0981   16.0251 H   0  0  0  0  0  0  0  0  0  0  0  0
   26.9641   17.3570   15.8950 H   0  0  0  0  0  0  0  0  0  0  0  0
   24.8829   19.3738   16.8707 H   0  0  0  0  0  0  0  0  0  0  0  0
   26.1181   18.5047   17.8680 H   0  0  0  0  0  0  0  0  0  0  0  0
   27.6519   21.1968   15.0912 H   0  0  0  0  0  0  0  0  0  0  0  0
   22.9835   16.6536   11.2200 H   0  0  0  0  0  0  0  0  0  0  0  0
   29.7036    8.9868    8.0029 H   0  0  0  0  0  0  0  0  0  0  0  0
  1  2  1  0
  2  3  1  0
  3  4  2  0
  4  5  1  0
  5  6  1  0
  6  7  2  0
  6  8  2  0
  6  9  1  0
  9 10  2  0
 10 11  1  0
 11 12  2  0
 12 13  1  0
 13 14  2  0
 14 15  1  0
 15 16  1  0
 16 17  2  0
 16 18  1  0
 18 19  1  0
 19 20  1  0
 20 21  1  0
 21 22  1  0
 22 23  2  0
 22 24  1  0
 24 25  1  0
 25 26  2  0
 15 27  2  0
 27 28  1  0
 28 29  2  0
 29 30  1  0
 30 31  1  0
 31 32  2  0
 12 33  1  0
  5 34  1  0
 34 35  2  0
 35  3  1  0
 33  9  1  0
 32 13  1  0
 25 19  1  0
 31 27  1  0
  1 36  1  0
  1 37  1  0
  1 38  1  0
  2 39  1  0
  2 40  1  0
  4 41  1  0
 10 42  1  0
 11 43  1  0
 14 44  1  0
 18 45  1  0
 19 46  1  1
 20 47  1  0
 20 48  1  0
 21 49  1  0
 21 50  1  0
 24 51  1  0
 28 52  1  0
 34 53  1  0
M  END
>  <meeko>  (637) 
{"is_sidechain": [true], "free_energy": -11.85, "intermolecular_energy": 0.0, "internal_energy": -11.85, "cluster_size": 11, "cluster_id": 1, "rank_in_cluster": 1}

>  <_RMSD_MCS_to_ref>  (637) 
1.3402118820876372

$$$$
ligand
     RDKit          3D

 55 59  0  0  0  0  0  0  0  0999 V2000
   24.8540    9.4020    7.6050 C   0  0  0  0  0  0  0  0  0  0  0  0
   25.5230   10.7550    7.4270 C   0  0  0  0  0  0  0  0  0  0  0  0
   26.9990   10.6770    7.6000 C   0  0  0  0  0  0  0  0  0  0  0  0
   27.8540   11.6010    8.1690 C   0  0  0  0  0  0  0  0  0  0  0  0
   29.0920   11.0360    8.0420 N   0  0  0  0  0  0  0  0  0  0  0  0
   30.5680   11.8320    8.2490 S   0  0  0  0  0  6  0  0  0  0  0  0
   31.5070   11.0530    7.4630 O   0  0  0  0  0  0  0  0  0  0  0  0
   30.7260   11.9690    9.6860 O   0  0  0  0  0  0  0  0  0  0  0  0
   30.4400   13.3160    7.5670 O   0  0  0  0  0  0  0  0  0  0  0  0
   29.1950   13.8440    7.3540 C   0  0  0  0  0  0  0  0  0  0  0  0
   28.6710   13.7860    6.0720 C   0  0  0  0  0  0  0  0  0  0  0  0
   27.3930   14.2860    5.8170 C   0  0  0  0  0  0  0  0  0  0  0  0
   26.6570   14.8580    6.8730 C   0  0  0  0  0  0  0  0  0  0  0  0
   25.0740   15.5120    6.7820 S   0  0  0  0  0  0  0  0  0  0  0  0
   25.0490   15.9350    8.4440 C   0  0  0  0  0  0  0  0  0  0  0  0
   23.9880   16.5490    9.1390 C   0  0  0  0  0  0  0  0  0  0  0  0
   24.1380   16.8220   10.5000 C   0  0  0  0  0  0  0  0  0  0  0  0
   25.3210   16.5040   11.1630 C   0  0  0  0  0  0  0  0  0  0  0  0
   25.4230   16.8150   12.6160 C   0  0  0  0  0  0  0  0  0  0  0  0
   25.3270   15.9220   13.4510 O   0  0  0  0  0  0  0  0  0  0  0  0
   25.5920   18.1390   12.9540 N   0  0  0  0  0  0  0  0  0  0  0  0
   25.5470   18.5690   14.3450 C   0  0  1  0  0  0  0  0  0  0  0  0
   26.6550   17.9390   15.1820 C   0  0  0  0  0  0  0  0  0  0  0  0
   26.5720   18.4630   16.6080 C   0  0  0  0  0  0  0  0  0  0  0  0
   26.6290   19.9730   16.6430 C   0  0  0  0  0  0  0  0  0  0  0  0
   27.1560   20.5910   17.5630 O   0  0  0  0  0  0  0  0  0  0  0  0
   26.0310   20.6350   15.6020 N   0  0  0  0  0  0  0  0  0  0  0  0
   25.6980   20.0930   14.3850 C   0  0  0  0  0  0  0  0  0  0  0  0
   25.5190   20.8050   13.3970 O   0  0  0  0  0  0  0  0  0  0  0  0
   26.3660   15.8790   10.4650 C   0  0  0  0  0  0  0  0  0  0  0  0
   26.2420   15.5890    9.0780 C   0  0  0  0  0  0  0  0  0  0  0  0
   27.1760   14.9560    8.1640 C   0  0  0  0  0  0  0  0  0  0  0  0
   28.4820   14.4470    8.3930 C   0  0  0  0  0  0  0  0  0  0  0  0
   28.9730    9.8460    7.3980 C   0  0  0  0  0  0  0  0  0  0  0  0
   27.7090    9.5900    7.1290 N   0  0  0  0  0  0  0  0  0  0  0  0
   24.7464    9.1845    8.6779 H   0  0  0  0  0  0  0  0  0  0  0  0
   23.8606    9.4192    7.1330 H   0  0  0  0  0  0  0  0  0  0  0  0
   25.4708    8.6230    7.1330 H   0  0  0  0  0  0  0  0  0  0  0  0
   25.3037   11.1288    6.4160 H   0  0  0  0  0  0  0  0  0  0  0  0
   25.1270   11.4326    8.1978 H   0  0  0  0  0  0  0  0  0  0  0  0
   27.5970   12.5703    8.6211 H   0  0  0  0  0  0  0  0  0  0  0  0
   29.2624   13.3459    5.2556 H   0  0  0  0  0  0  0  0  0  0  0  0
   26.9662   14.2340    4.8045 H   0  0  0  0  0  0  0  0  0  0  0  0
   23.0554   16.8093    8.6170 H   0  0  0  0  0  0  0  0  0  0  0  0
   23.3132   17.2932   11.0546 H   0  0  0  0  0  0  0  0  0  0  0  0
   25.7526   18.8356   12.2124 H   0  0  0  0  0  0  0  0  0  0  0  0
   24.5855   18.2473   14.7717 H   0  0  0  0  0  0  0  0  0  0  0  0
   26.5356   16.8455   15.1854 H   0  0  0  0  0  0  0  0  0  0  0  0
   27.6333   18.1991   14.7516 H   0  0  0  0  0  0  0  0  0  0  0  0
   25.6250   18.1298   17.0575 H   0  0  0  0  0  0  0  0  0  0  0  0
   27.4305   18.0702   17.1725 H   0  0  0  0  0  0  0  0  0  0  0  0
   25.8112   21.6309   15.7460 H   0  0  0  0  0  0  0  0  0  0  0  0
   27.2910   15.6105   10.9963 H   0  0  0  0  0  0  0  0  0  0  0  0
   28.9339   14.5279    9.3926 H   0  0  0  0  0  0  0  0  0  0  0  0
   29.8148    9.1877    7.1374 H   0  0  0  0  0  0  0  0  0  0  0  0
  1  2  1  0
  2  3  1  0
  3  4  2  0
  4  5  1  0
  5  6  1  0
  6  7  2  0
  6  8  2  0
  6  9  1  0
  9 10  1  0
 10 11  2  0
 11 12  1  0
 12 13  2  0
 13 14  1  0
 14 15  1  0
 15 16  2  0
 16 17  1  0
 17 18  2  0
 18 19  1  0
 19 20  2  0
 19 21  1  0
 21 22  1  0
 22 23  1  0
 23 24  1  0
 24 25  1  0
 25 26  2  0
 25 27  1  0
 27 28  1  0
 28 29  2  0
 18 30  1  0
 30 31  2  0
 31 32  1  0
 32 33  2  0
  5 34  1  0
 34 35  2  0
 35  3  1  0
 33 10  1  0
 32 13  1  0
 31 15  1  0
 28 22  1  0
  1 36  1  0
  1 37  1  0
  1 38  1  0
  2 39  1  0
  2 40  1  0
  4 41  1  0
 11 42  1  0
 12 43  1  0
 16 44  1  0
 17 45  1  0
 21 46  1  0
 22 47  1  1
 23 48  1  0
 23 49  1  0
 24 50  1  0
 24 51  1  0
 27 52  1  0
 30 53  1  0
 33 54  1  0
 34 55  1  0
M  END
>  <meeko>  (638) 
{"is_sidechain": [true], "free_energy": -11.85, "intermolecular_energy": 0.0, "internal_energy": -11.85, "cluster_size": 20, "cluster_id": 1, "rank_in_cluster": 1}

>  <_RMSD_MCS_to_ref>  (638) 
0.6879111699760195

$$$$
ligand
     RDKit          3D

 61 66  0  0  0  0  0  0  0  0999 V2000
   24.8540    9.4020    7.6050 C   0  0  0  0  0  0  0  0  0  0  0  0
   25.5230   10.7550    7.4270 C   0  0  0  0  0  0  0  0  0  0  0  0
   27.0050   10.6470    7.3660 C   0  0  0  0  0  0  0  0  0  0  0  0
   27.9460   11.1500    8.2430 C   0  0  0  0  0  0  0  0  0  0  0  0
   29.1430   10.7740    7.7040 N   0  0  0  0  0  0  0  0  0  0  0  0
   30.6650   11.3580    8.1580 S   0  0  0  0  0  6  0  0  0  0  0  0
   30.9080   12.4610    7.2440 O   0  0  0  0  0  0  0  0  0  0  0  0
   31.5300   10.1930    8.1690 O   0  0  0  0  0  0  0  0  0  0  0  0
   30.5510   11.9720    9.6740 O   0  0  0  0  0  0  0  0  0  0  0  0
   29.7600   13.0730    9.8770 C   0  0  0  0  0  0  0  0  0  0  0  0
   28.4300   12.9300   10.2540 C   0  0  0  0  0  0  0  0  0  0  0  0
   27.6140   14.0590   10.3820 C   0  0  0  0  0  0  0  0  0  0  0  0
   28.1480   15.3450   10.1430 C   0  0  0  0  0  0  0  0  0  0  0  0
   27.6040   16.6790   10.1430 C   0  0  0  0  0  0  0  0  0  0  0  0
   26.1980   17.1260   10.4010 C   0  0  1  0  0  0  0  0  0  0  0  0
   25.2810   16.2530    9.5990 C   0  0  0  0  0  0  0  0  0  0  0  0
   25.2280   16.0030    8.2360 C   0  0  0  0  0  0  0  0  0  0  0  0
   24.2200   15.1580    7.7560 C   0  0  0  0  0  0  0  0  0  0  0  0
   23.2770   14.5870    8.6290 C   0  0  0  0  0  0  0  0  0  0  0  0
   23.3280   14.8500    9.9990 C   0  0  0  0  0  0  0  0  0  0  0  0
   24.3360   15.6820   10.4490 C   0  0  0  0  0  0  0  0  0  0  0  0
   24.6240   16.1210   11.8200 C   0  0  0  0  0  0  0  0  0  0  0  0
   23.9320   15.8600   12.7850 O   0  0  0  0  0  0  0  0  0  0  0  0
   25.7910   16.8680   11.7750 N   0  0  0  0  0  0  0  0  0  0  0  0
   26.2840   17.6860   12.8770 C   0  0  2  0  0  0  0  0  0  0  0  0
   25.7640   17.2500   14.2470 C   0  0  0  0  0  0  0  0  0  0  0  0
   26.3850   18.1260   15.3230 C   0  0  0  0  0  0  0  0  0  0  0  0
   26.1060   19.5890   15.0660 C   0  0  0  0  0  0  0  0  0  0  0  0
   26.1300   20.4270   15.9640 O   0  0  0  0  0  0  0  0  0  0  0  0
   25.9070   19.9610   13.7610 N   0  0  0  0  0  0  0  0  0  0  0  0
   25.9900   19.1730   12.6350 C   0  0  0  0  0  0  0  0  0  0  0  0
   25.9330   19.6780   11.5160 O   0  0  0  0  0  0  0  0  0  0  0  0
   28.6590   17.5260    9.8460 C   0  0  0  0  0  0  0  0  0  0  0  0
   29.7850   16.7780    9.6470 N   0  0  0  0  0  0  0  0  0  0  0  0
   29.5010   15.4440    9.8150 C   0  0  0  0  0  0  0  0  0  0  0  0
   30.3390   14.3300    9.6880 C   0  0  0  0  0  0  0  0  0  0  0  0
   28.9170   10.1060    6.5430 C   0  0  0  0  0  0  0  0  0  0  0  0
   27.6250    9.9970    6.3150 N   0  0  0  0  0  0  0  0  0  0  0  0
   24.7464    9.1845    8.6779 H   0  0  0  0  0  0  0  0  0  0  0  0
   23.8606    9.4192    7.1330 H   0  0  0  0  0  0  0  0  0  0  0  0
   25.4708    8.6230    7.1330 H   0  0  0  0  0  0  0  0  0  0  0  0
   25.1623   11.2079    6.4917 H   0  0  0  0  0  0  0  0  0  0  0  0
   25.2659   11.3753    8.2983 H   0  0  0  0  0  0  0  0  0  0  0  0
   27.7711   11.7230    9.1655 H   0  0  0  0  0  0  0  0  0  0  0  0
   28.0190   11.9290   10.4517 H   0  0  0  0  0  0  0  0  0  0  0  0
   26.5580   13.9457   10.6684 H   0  0  0  0  0  0  0  0  0  0  0  0
   26.1500   18.1985   10.1615 H   0  0  0  0  0  0  0  0  0  0  0  0
   25.9586   16.4566    7.5500 H   0  0  0  0  0  0  0  0  0  0  0  0
   24.1649   14.9375    6.6797 H   0  0  0  0  0  0  0  0  0  0  0  0
   22.4926   13.9276    8.2290 H   0  0  0  0  0  0  0  0  0  0  0  0
   22.5951   14.4125   10.6929 H   0  0  0  0  0  0  0  0  0  0  0  0
   27.3730   17.5325   12.8986 H   0  0  0  0  0  0  0  0  0  0  0  0
   24.6693   17.3546   14.2747 H   0  0  0  0  0  0  0  0  0  0  0  0
   26.0348   16.1990   14.4262 H   0  0  0  0  0  0  0  0  0  0  0  0
   25.9639   17.8468   16.3001 H   0  0  0  0  0  0  0  0  0  0  0  0
   27.4741   17.9721   15.3114 H   0  0  0  0  0  0  0  0  0  0  0  0
   25.6662   20.9501   13.6042 H   0  0  0  0  0  0  0  0  0  0  0  0
   28.5999   18.6225    9.7809 H   0  0  0  0  0  0  0  0  0  0  0  0
   30.7114   17.1585    9.4062 H   0  0  0  0  0  0  0  0  0  0  0  0
   31.4073   14.4397    9.4497 H   0  0  0  0  0  0  0  0  0  0  0  0
   29.7045    9.7108    5.8845 H   0  0  0  0  0  0  0  0  0  0  0  0
  1  2  1  0
  2  3  1  0
  3  4  2  0
  4  5  1  0
  5  6  1  0
  6  7  2  0
  6  8  2  0
  6  9  1  0
  9 10  1  0
 10 11  2  0
 11 12  1  0
 12 13  2  0
 13 14  1  0
 14 15  1  0
 15 16  1  0
 16 17  2  0
 17 18  1  0
 18 19  2  0
 19 20  1  0
 20 21  2  0
 21 22  1  0
 22 23  2  0
 22 24  1  0
 24 25  1  0
 25 26  1  0
 26 27  1  0
 27 28  1  0
 28 29  2  0
 28 30  1  0
 30 31  1  0
 31 32  2  0
 14 33  2  0
 33 34  1  0
 34 35  1  0
 35 36  2  0
  5 37  1  0
 37 38  2  0
 38  3  1  0
 36 10  1  0
 35 13  1  0
 24 15  1  0
 31 25  1  0
 21 16  1  0
  1 39  1  0
  1 40  1  0
  1 41  1  0
  2 42  1  0
  2 43  1  0
  4 44  1  0
 11 45  1  0
 12 46  1  0
 15 47  1  6
 17 48  1  0
 18 49  1  0
 19 50  1  0
 20 51  1  0
 25 52  1  1
 26 53  1  0
 26 54  1  0
 27 55  1  0
 27 56  1  0
 30 57  1  0
 33 58  1  0
 34 59  1  0
 36 60  1  0
 37 61  1  0
M  END
>  <meeko>  (639) 
{"is_sidechain": [true], "free_energy": -11.85, "intermolecular_energy": 0.0, "internal_energy": -11.85, "cluster_size": 20, "cluster_id": 1, "rank_in_cluster": 1}

>  <_RMSD_MCS_to_ref>  (639) 
1.9829634669128704

$$$$
ligand
     RDKit          3D

 63 68  0  0  0  0  0  0  0  0999 V2000
   24.8710    9.6160    7.7820 C   0  0  0  0  0  0  0  0  0  0  0  0
   25.4240   10.9650    7.3490 C   0  0  0  0  0  0  0  0  0  0  0  0
   26.7810   10.8450    6.7490 C   0  0  0  0  0  0  0  0  0  0  0  0
   27.2510   11.3580    5.5560 C   0  0  0  0  0  0  0  0  0  0  0  0
   28.5620   10.9770    5.5190 N   0  0  0  0  0  0  0  0  0  0  0  0
   29.7160   11.5300    4.4370 S   0  0  0  0  0  6  0  0  0  0  0  0
   31.0070   11.3510    5.0750 O   0  0  0  0  0  0  0  0  0  0  0  0
   29.3870   10.9610    3.1440 O   0  0  0  0  0  0  0  0  0  0  0  0
   29.5300   13.2450    4.2470 C   0  0  0  0  0  0  0  0  0  0  0  0
   30.3260   14.0520    3.4140 C   0  0  0  0  0  0  0  0  0  0  0  0
   29.8240   15.3230    3.5830 C   0  0  0  0  0  0  0  0  0  0  0  0
   28.7760   15.2350    4.4770 N   0  0  0  0  0  0  0  0  0  0  0  0
   27.9400   16.2750    4.9680 C   0  0  0  0  0  0  0  0  0  0  0  0
   27.6220   17.3890    4.1840 C   0  0  0  0  0  0  0  0  0  0  0  0
   26.7980   18.3890    4.7050 C   0  0  0  0  0  0  0  0  0  0  0  0
   26.2890   18.2820    6.0020 C   0  0  0  0  0  0  0  0  0  0  0  0
   26.5890   17.1740    6.8090 C   0  0  0  0  0  0  0  0  0  0  0  0
   26.0490   17.0490    8.1750 C   0  0  0  0  0  0  0  0  0  0  0  0
   24.9210   16.2270    8.4320 C   0  0  0  0  0  0  0  0  0  0  0  0
   24.3740   16.1070    9.7130 C   0  0  0  0  0  0  0  0  0  0  0  0
   24.9790   16.8200   10.7270 C   0  0  0  0  0  0  0  0  0  0  0  0
   26.0860   17.6350   10.5150 C   0  0  0  0  0  0  0  0  0  0  0  0
   26.6310   17.7590    9.2460 C   0  0  0  0  0  0  0  0  0  0  0  0
   26.4840   18.2940   11.7920 C   0  0  0  0  0  0  0  0  0  0  0  0
   25.5820   17.6870   12.7610 N   0  0  0  0  0  0  0  0  0  0  0  0
   25.4730   18.2030   14.1220 C   0  0  2  0  0  0  0  0  0  0  0  0
   26.2660   19.4870   14.3590 C   0  0  0  0  0  0  0  0  0  0  0  0
   26.0320   19.9670   15.7840 C   0  0  0  0  0  0  0  0  0  0  0  0
   26.4000   18.9010   16.7890 C   0  0  0  0  0  0  0  0  0  0  0  0
   26.6850   19.1690   17.9530 O   0  0  0  0  0  0  0  0  0  0  0  0
   26.3160   17.5980   16.3650 N   0  0  0  0  0  0  0  0  0  0  0  0
   25.8570   17.1310   15.1550 C   0  0  0  0  0  0  0  0  0  0  0  0
   25.6750   15.9260   14.9840 O   0  0  0  0  0  0  0  0  0  0  0  0
   24.6210   16.8960   12.1480 C   0  0  0  0  0  0  0  0  0  0  0  0
   23.6480   16.3650   12.6460 O   0  0  0  0  0  0  0  0  0  0  0  0
   27.4210   16.1760    6.2730 C   0  0  0  0  0  0  0  0  0  0  0  0
   28.5950   13.9550    4.8930 N   0  0  0  0  0  0  0  0  0  0  0  0
   28.8590   10.3000    6.6590 C   0  0  0  0  0  0  0  0  0  0  0  0
   27.7880   10.1760    7.4170 N   0  0  0  0  0  0  0  0  0  0  0  0
   24.8497    9.5640    8.8806 H   0  0  0  0  0  0  0  0  0  0  0  0
   23.8507    9.4948    7.3893 H   0  0  0  0  0  0  0  0  0  0  0  0
   25.5127    8.8135    7.3893 H   0  0  0  0  0  0  0  0  0  0  0  0
   24.7442   11.4051    6.6045 H   0  0  0  0  0  0  0  0  0  0  0  0
   25.5026   11.6024    8.2420 H   0  0  0  0  0  0  0  0  0  0  0  0
   26.6958   11.9408    4.8063 H   0  0  0  0  0  0  0  0  0  0  0  0
   31.1620   13.7381    2.7717 H   0  0  0  0  0  0  0  0  0  0  0  0
   30.1902   16.2387    3.0959 H   0  0  0  0  0  0  0  0  0  0  0  0
   28.0191   17.4769    3.1619 H   0  0  0  0  0  0  0  0  0  0  0  0
   26.5481   19.2664    4.0905 H   0  0  0  0  0  0  0  0  0  0  0  0
   25.6425   19.0795    6.3969 H   0  0  0  0  0  0  0  0  0  0  0  0
   24.4648   15.6692    7.6009 H   0  0  0  0  0  0  0  0  0  0  0  0
   23.4975   15.4704    9.9043 H   0  0  0  0  0  0  0  0  0  0  0  0
   27.5064   18.4031    9.0766 H   0  0  0  0  0  0  0  0  0  0  0  0
   27.5341   18.0788   12.0388 H   0  0  0  0  0  0  0  0  0  0  0  0
   26.4128   19.3911   11.7574 H   0  0  0  0  0  0  0  0  0  0  0  0
   24.4134   18.4671   14.2544 H   0  0  0  0  0  0  0  0  0  0  0  0
   27.3378   19.2899   14.2090 H   0  0  0  0  0  0  0  0  0  0  0  0
   25.9349   20.2606   13.6506 H   0  0  0  0  0  0  0  0  0  0  0  0
   26.6476   20.8600   15.9671 H   0  0  0  0  0  0  0  0  0  0  0  0
   24.9635   20.2007   15.9009 H   0  0  0  0  0  0  0  0  0  0  0  0
   26.6355   16.8831   17.0341 H   0  0  0  0  0  0  0  0  0  0  0  0
   27.6722   15.2983    6.8866 H   0  0  0  0  0  0  0  0  0  0  0  0
   29.8553    9.9095    6.9139 H   0  0  0  0  0  0  0  0  0  0  0  0
  1  2  1  0
  2  3  1  0
  3  4  2  0
  4  5  1  0
  5  6  1  0
  6  7  2  0
  6  8  2  0
  6  9  1  0
  9 10  1  0
 10 11  2  0
 11 12  1  0
 12 13  1  0
 13 14  2  0
 14 15  1  0
 15 16  2  0
 16 17  1  0
 17 18  1  0
 18 19  2  0
 19 20  1  0
 20 21  2  0
 21 22  1  0
 22 23  2  0
 22 24  1  0
 24 25  1  0
 25 26  1  0
 26 27  1  0
 27 28  1  0
 28 29  1  0
 29 30  2  0
 29 31  1  0
 31 32  1  0
 32 33  2  0
 25 34  1  0
 34 35  2  0
 17 36  2  0
 12 37  1  0
  5 38  1  0
 38 39  2  0
 39  3  1  0
 37  9  2  0
 36 13  1  0
 23 18  1  0
 32 26  1  0
 34 21  1  0
  1 40  1  0
  1 41  1  0
  1 42  1  0
  2 43  1  0
  2 44  1  0
  4 45  1  0
 10 46  1  0
 11 47  1  0
 14 48  1  0
 15 49  1  0
 16 50  1  0
 19 51  1  0
 20 52  1  0
 23 53  1  0
 24 54  1  0
 24 55  1  0
 26 56  1  1
 27 57  1  0
 27 58  1  0
 28 59  1  0
 28 60  1  0
 31 61  1  0
 36 62  1  0
 38 63  1  0
M  END
>  <meeko>  (640) 
{"is_sidechain": [true], "free_energy": -11.85, "intermolecular_energy": 0.0, "internal_energy": -11.85, "cluster_size": 20, "cluster_id": 1, "rank_in_cluster": 1}

>  <_RMSD_MCS_to_ref>  (640) 
1.998712124818063

$$$$
ligand
     RDKit          3D

 57 61  0  0  0  0  0  0  0  0999 V2000
   24.8540    9.4020    7.6050 C   0  0  0  0  0  0  0  0  0  0  0  0
   25.5230   10.7550    7.4270 C   0  0  0  0  0  0  0  0  0  0  0  0
   26.9020   10.6380    6.8770 C   0  0  0  0  0  0  0  0  0  0  0  0
   27.3680   10.9750    5.6210 C   0  0  0  0  0  0  0  0  0  0  0  0
   28.6990   10.6730    5.6630 N   0  0  0  0  0  0  0  0  0  0  0  0
   29.8470   11.1600    4.5380 S   0  0  0  0  0  6  0  0  0  0  0  0
   29.4840   10.4710    3.3140 O   0  0  0  0  0  0  0  0  0  0  0  0
   31.1330   10.9870    5.1810 O   0  0  0  0  0  0  0  0  0  0  0  0
   29.5980   12.8820    4.2800 C   0  0  0  0  0  0  0  0  0  0  0  0
   29.8500   13.4050    2.9970 C   0  0  0  0  0  0  0  0  0  0  0  0
   29.6590   14.7610    2.7130 C   0  0  0  0  0  0  0  0  0  0  0  0
   29.2030   15.6450    3.7000 C   0  0  0  0  0  0  0  0  0  0  0  0
   28.9470   15.1400    4.9800 C   0  0  0  0  0  0  0  0  0  0  0  0
   28.4950   15.7640    6.1120 N   0  0  0  0  0  0  0  0  0  0  0  0
   28.4420   14.8010    7.0180 C   0  0  0  0  0  0  0  0  0  0  0  0
   28.0100   14.9470    8.4110 C   0  0  0  0  0  0  0  0  0  0  0  0
   27.9810   13.9920    9.1840 O   0  0  0  0  0  0  0  0  0  0  0  0
   27.6490   16.2470    8.7610 N   0  0  0  0  0  0  0  0  0  0  0  0
   27.1650   16.7010   10.0090 C   0  0  0  0  0  0  0  0  0  0  0  0
   26.3060   15.9730   10.8320 C   0  0  0  0  0  0  0  0  0  0  0  0
   25.8720   16.4980   12.0570 C   0  0  0  0  0  0  0  0  0  0  0  0
   26.2860   17.7660   12.4860 C   0  0  0  0  0  0  0  0  0  0  0  0
   25.8260   18.2990   13.8310 C   0  0  1  0  0  0  0  0  0  0  0  0
   26.6190   17.6320   14.9600 C   0  0  0  0  0  0  0  0  0  0  0  0
   26.1150   18.1230   16.3060 C   0  0  0  0  0  0  0  0  0  0  0  0
   26.2020   19.6250   16.4010 C   0  0  0  0  0  0  0  0  0  0  0  0
   26.2990   20.2120   17.4750 O   0  0  0  0  0  0  0  0  0  0  0  0
   26.1020   20.3190   15.2220 N   0  0  0  0  0  0  0  0  0  0  0  0
   25.9050   19.8200   13.9530 C   0  0  0  0  0  0  0  0  0  0  0  0
   25.7490   20.5970   13.0140 O   0  0  0  0  0  0  0  0  0  0  0  0
   27.1530   18.4930   11.6600 C   0  0  0  0  0  0  0  0  0  0  0  0
   27.5800   17.9660   10.4370 C   0  0  0  0  0  0  0  0  0  0  0  0
   28.8400   13.5730    6.5450 O   0  0  0  0  0  0  0  0  0  0  0  0
   29.1540   13.7920    5.2330 C   0  0  0  0  0  0  0  0  0  0  0  0
   29.0040   10.1660    6.8860 C   0  0  0  0  0  0  0  0  0  0  0  0
   27.9400   10.1730    7.6630 N   0  0  0  0  0  0  0  0  0  0  0  0
   24.7464    9.1845    8.6779 H   0  0  0  0  0  0  0  0  0  0  0  0
   23.8606    9.4192    7.1330 H   0  0  0  0  0  0  0  0  0  0  0  0
   25.4708    8.6230    7.1330 H   0  0  0  0  0  0  0  0  0  0  0  0
   24.9174   11.3605    6.7366 H   0  0  0  0  0  0  0  0  0  0  0  0
   25.5959   11.2263    8.4182 H   0  0  0  0  0  0  0  0  0  0  0  0
   26.7967   11.3919    4.7785 H   0  0  0  0  0  0  0  0  0  0  0  0
   30.2045   12.7329    2.2016 H   0  0  0  0  0  0  0  0  0  0  0  0
   29.8695   15.1386    1.7015 H   0  0  0  0  0  0  0  0  0  0  0  0
   29.0499   16.7106    3.4742 H   0  0  0  0  0  0  0  0  0  0  0  0
   27.7463   16.9601    8.0242 H   0  0  0  0  0  0  0  0  0  0  0  0
   25.9654   14.9759   10.5163 H   0  0  0  0  0  0  0  0  0  0  0  0
   25.1961   15.9056   12.6912 H   0  0  0  0  0  0  0  0  0  0  0  0
   24.7595   18.0433   13.9158 H   0  0  0  0  0  0  0  0  0  0  0  0
   26.4927   16.5410   14.8992 H   0  0  0  0  0  0  0  0  0  0  0  0
   27.6834   17.8896   14.8560 H   0  0  0  0  0  0  0  0  0  0  0  0
   25.0665   17.8149   16.4316 H   0  0  0  0  0  0  0  0  0  0  0  0
   26.7429   17.6852   17.0960 H   0  0  0  0  0  0  0  0  0  0  0  0
   26.1847   21.3431   15.2946 H   0  0  0  0  0  0  0  0  0  0  0  0
   27.5011   19.4874   11.9762 H   0  0  0  0  0  0  0  0  0  0  0  0
   28.2545   18.5572    9.8002 H   0  0  0  0  0  0  0  0  0  0  0  0
   29.9979    9.8015    7.1850 H   0  0  0  0  0  0  0  0  0  0  0  0
  1  2  1  0
  2  3  1  0
  3  4  2  0
  4  5  1  0
  5  6  1  0
  6  7  2  0
  6  8  2  0
  6  9  1  0
  9 10  2  0
 10 11  1  0
 11 12  2  0
 12 13  1  0
 13 14  1  0
 14 15  2  0
 15 16  1  0
 16 17  2  0
 16 18  1  0
 18 19  1  0
 19 20  2  0
 20 21  1  0
 21 22  2  0
 22 23  1  0
 23 24  1  0
 24 25  1  0
 25 26  1  0
 26 27  2  0
 26 28  1  0
 28 29  1  0
 29 30  2  0
 22 31  1  0
 31 32  2  0
 15 33  1  0
 33 34  1  0
  5 35  1  0
 35 36  2  0
 36  3  1  0
 34  9  1  0
 34 13  2  0
 32 19  1  0
 29 23  1  0
  1 37  1  0
  1 38  1  0
  1 39  1  0
  2 40  1  0
  2 41  1  0
  4 42  1  0
 10 43  1  0
 11 44  1  0
 12 45  1  0
 18 46  1  0
 20 47  1  0
 21 48  1  0
 23 49  1  1
 24 50  1  0
 24 51  1  0
 25 52  1  0
 25 53  1  0
 28 54  1  0
 31 55  1  0
 32 56  1  0
 35 57  1  0
M  END
>  <meeko>  (641) 
{"is_sidechain": [true], "free_energy": -11.84, "intermolecular_energy": 0.0, "internal_energy": -11.84, "cluster_size": 20, "cluster_id": 1, "rank_in_cluster": 1}

>  <_RMSD_MCS_to_ref>  (641) 
1.0266658414498842

$$$$
ligand
     RDKit          3D

 57 61  0  0  0  0  0  0  0  0999 V2000
   24.8540    9.4020    7.6050 C   0  0  0  0  0  0  0  0  0  0  0  0
   25.5230   10.7550    7.4270 C   0  0  0  0  0  0  0  0  0  0  0  0
   25.2330   11.3570    6.0960 C   0  0  0  0  0  0  0  0  0  0  0  0
   24.5190   12.5010    5.8010 C   0  0  0  0  0  0  0  0  0  0  0  0
   24.5860   12.6020    4.4430 N   0  0  0  0  0  0  0  0  0  0  0  0
   24.1180   13.9270    3.5230 S   0  0  0  0  0  6  0  0  0  0  0  0
   22.7620   14.2510    3.9250 O   0  0  0  0  0  0  0  0  0  0  0  0
   24.4620   13.5790    2.1550 O   0  0  0  0  0  0  0  0  0  0  0  0
   25.2040   15.2270    4.0720 C   0  0  0  0  0  0  0  0  0  0  0  0
   26.1220   15.7760    3.1970 C   0  0  0  0  0  0  0  0  0  0  0  0
   26.9980   16.7350    3.6940 C   0  0  0  0  0  0  0  0  0  0  0  0
   26.8960   17.0690    5.0550 C   0  0  0  0  0  0  0  0  0  0  0  0
   27.8550   18.1720    5.9510 S   0  0  0  0  0  0  0  0  0  0  0  0
   27.0040   17.8450    7.3920 C   0  0  0  0  0  0  0  0  0  0  0  0
   25.9730   16.9360    7.2220 C   0  0  0  0  0  0  0  0  0  0  0  0
   25.1090   16.5350    8.3400 C   0  0  0  0  0  0  0  0  0  0  0  0
   24.1700   15.7690    8.1540 O   0  0  0  0  0  0  0  0  0  0  0  0
   25.4930   17.0530    9.5610 N   0  0  0  0  0  0  0  0  0  0  0  0
   24.8430   16.9170   10.8030 C   0  0  0  0  0  0  0  0  0  0  0  0
   23.8370   15.9500   10.8950 C   0  0  0  0  0  0  0  0  0  0  0  0
   23.1760   15.7250   12.1020 C   0  0  0  0  0  0  0  0  0  0  0  0
   23.5190   16.4610   13.2340 C   0  0  0  0  0  0  0  0  0  0  0  0
   24.5280   17.4320   13.1670 C   0  0  0  0  0  0  0  0  0  0  0  0
   24.9280   18.2480   14.3860 C   0  0  1  0  0  0  0  0  0  0  0  0
   26.1560   17.6310   15.0650 C   0  0  0  0  0  0  0  0  0  0  0  0
   26.5050   18.4230   16.3150 C   0  0  0  0  0  0  0  0  0  0  0  0
   26.7390   19.8760   15.9880 C   0  0  0  0  0  0  0  0  0  0  0  0
   27.4620   20.5950   16.6710 O   0  0  0  0  0  0  0  0  0  0  0  0
   26.0530   20.3800   14.9120 N   0  0  0  0  0  0  0  0  0  0  0  0
   25.1800   19.7230   14.0740 C   0  0  0  0  0  0  0  0  0  0  0  0
   24.6190   20.3430   13.1730 O   0  0  0  0  0  0  0  0  0  0  0  0
   25.1750   17.6590   11.9390 C   0  0  0  0  0  0  0  0  0  0  0  0
   25.9230   16.4750    5.8620 C   0  0  0  0  0  0  0  0  0  0  0  0
   25.0420   15.5470    5.3790 N   0  0  0  0  0  0  0  0  0  0  0  0
   25.3060   11.5580    3.9550 C   0  0  0  0  0  0  0  0  0  0  0  0
   25.7070   10.7750    4.9340 N   0  0  0  0  0  0  0  0  0  0  0  0
   24.7464    9.1845    8.6779 H   0  0  0  0  0  0  0  0  0  0  0  0
   23.8606    9.4192    7.1330 H   0  0  0  0  0  0  0  0  0  0  0  0
   25.4708    8.6230    7.1330 H   0  0  0  0  0  0  0  0  0  0  0  0
   25.1586   11.4358    8.2104 H   0  0  0  0  0  0  0  0  0  0  0  0
   26.6104   10.6054    7.4995 H   0  0  0  0  0  0  0  0  0  0  0  0
   24.0107   13.1783    6.5031 H   0  0  0  0  0  0  0  0  0  0  0  0
   26.1586   15.4648    2.1426 H   0  0  0  0  0  0  0  0  0  0  0  0
   27.7446   17.2152    3.0444 H   0  0  0  0  0  0  0  0  0  0  0  0
   27.2491   18.3090    8.3587 H   0  0  0  0  0  0  0  0  0  0  0  0
   26.3614   17.6068    9.5638 H   0  0  0  0  0  0  0  0  0  0  0  0
   23.5645   15.3612   10.0067 H   0  0  0  0  0  0  0  0  0  0  0  0
   22.3826   14.9653   12.1604 H   0  0  0  0  0  0  0  0  0  0  0  0
   22.9959   16.2795   14.1845 H   0  0  0  0  0  0  0  0  0  0  0  0
   24.0697   18.2165   15.0733 H   0  0  0  0  0  0  0  0  0  0  0  0
   25.9355   16.5896   15.3421 H   0  0  0  0  0  0  0  0  0  0  0  0
   27.0074   17.6567   14.3690 H   0  0  0  0  0  0  0  0  0  0  0  0
   25.6754   18.3453   17.0331 H   0  0  0  0  0  0  0  0  0  0  0  0
   27.4284   18.0082   16.7455 H   0  0  0  0  0  0  0  0  0  0  0  0
   26.2111   21.3765   14.7047 H   0  0  0  0  0  0  0  0  0  0  0  0
   25.9542   18.4325   11.8721 H   0  0  0  0  0  0  0  0  0  0  0  0
   25.5235   11.3905    2.8898 H   0  0  0  0  0  0  0  0  0  0  0  0
  1  2  1  0
  2  3  1  0
  3  4  2  0
  4  5  1  0
  5  6  1  0
  6  7  2  0
  6  8  2  0
  6  9  1  0
  9 10  2  0
 10 11  1  0
 11 12  2  0
 12 13  1  0
 13 14  1  0
 14 15  2  0
 15 16  1  0
 16 17  2  0
 16 18  1  0
 18 19  1  0
 19 20  2  0
 20 21  1  0
 21 22  2  0
 22 23  1  0
 23 24  1  0
 24 25  1  0
 25 26  1  0
 26 27  1  0
 27 28  2  0
 27 29  1  0
 29 30  1  0
 30 31  2  0
 23 32  2  0
 15 33  1  0
 33 34  2  0
  5 35  1  0
 35 36  2  0
 36  3  1  0
 34  9  1  0
 33 12  1  0
 32 19  1  0
 30 24  1  0
  1 37  1  0
  1 38  1  0
  1 39  1  0
  2 40  1  0
  2 41  1  0
  4 42  1  0
 10 43  1  0
 11 44  1  0
 14 45  1  0
 18 46  1  0
 20 47  1  0
 21 48  1  0
 22 49  1  0
 24 50  1  1
 25 51  1  0
 25 52  1  0
 26 53  1  0
 26 54  1  0
 29 55  1  0
 32 56  1  0
 35 57  1  0
M  END
>  <meeko>  (642) 
{"is_sidechain": [true], "free_energy": -11.84, "intermolecular_energy": 0.0, "internal_energy": -11.84, "cluster_size": 6, "cluster_id": 1, "rank_in_cluster": 1}

>  <_RMSD_MCS_to_ref>  (642) 
0.5072921988361341

$$$$
ligand
     RDKit          3D

 60 65  0  0  0  0  0  0  0  0999 V2000
   24.8710    9.6160    7.7820 C   0  0  0  0  0  0  0  0  0  0  0  0
   25.4240   10.9650    7.3490 C   0  0  0  0  0  0  0  0  0  0  0  0
   26.8310   11.1640    7.7900 C   0  0  0  0  0  0  0  0  0  0  0  0
   27.3690   12.1970    8.5340 C   0  0  0  0  0  0  0  0  0  0  0  0
   28.6870   11.8650    8.6630 N   0  0  0  0  0  0  0  0  0  0  0  0
   29.9060   12.8560    9.2790 S   0  0  0  0  0  6  0  0  0  0  0  0
   31.1070   12.4300    8.5870 O   0  0  0  0  0  0  0  0  0  0  0  0
   29.8030   12.7430   10.7250 O   0  0  0  0  0  0  0  0  0  0  0  0
   29.5910   14.4000    8.8500 O   0  0  0  0  0  0  0  0  0  0  0  0
   29.0450   14.6770    7.6130 C   0  0  0  0  0  0  0  0  0  0  0  0
   27.7320   15.1920    7.5480 C   0  0  0  0  0  0  0  0  0  0  0  0
   26.9730   15.5180    8.7670 C   0  0  0  0  0  0  0  0  0  0  0  0
   25.7770   14.8290    9.0820 C   0  0  0  0  0  0  0  0  0  0  0  0
   25.0680   15.0990   10.2570 C   0  0  0  0  0  0  0  0  0  0  0  0
   25.5830   16.0610   11.1010 C   0  0  0  0  0  0  0  0  0  0  0  0
   26.7520   16.7610   10.8170 C   0  0  0  0  0  0  0  0  0  0  0  0
   27.4480   16.5110    9.6470 C   0  0  0  0  0  0  0  0  0  0  0  0
   27.0590   17.7200   11.9170 C   0  0  0  0  0  0  0  0  0  0  0  0
   26.0010   17.4420   12.8810 N   0  0  0  0  0  0  0  0  0  0  0  0
   25.7220   18.2900   14.0340 C   0  0  1  0  0  0  0  0  0  0  0  0
   26.3160   17.7340   15.3240 C   0  0  0  0  0  0  0  0  0  0  0  0
   25.9090   18.6200   16.4910 C   0  0  0  0  0  0  0  0  0  0  0  0
   26.3160   20.0560   16.2530 C   0  0  0  0  0  0  0  0  0  0  0  0
   26.6930   20.7910   17.1610 O   0  0  0  0  0  0  0  0  0  0  0  0
   26.2290   20.5140   14.9630 N   0  0  0  0  0  0  0  0  0  0  0  0
   26.2240   19.7300   13.8310 C   0  0  0  0  0  0  0  0  0  0  0  0
   26.6110   20.1880   12.7590 O   0  0  0  0  0  0  0  0  0  0  0  0
   25.0750   16.5310   12.3950 C   0  0  0  0  0  0  0  0  0  0  0  0
   24.0370   16.1660   12.9120 O   0  0  0  0  0  0  0  0  0  0  0  0
   27.1520   15.4290    6.2890 C   0  0  0  0  0  0  0  0  0  0  0  0
   27.8340   15.1520    5.0970 C   0  0  0  0  0  0  0  0  0  0  0  0
   29.1340   14.6280    5.1650 C   0  0  0  0  0  0  0  0  0  0  0  0
   30.1150   14.2240    4.2350 C   0  0  0  0  0  0  0  0  0  0  0  0
   31.2300   13.7870    4.8210 N   0  0  0  0  0  0  0  0  0  0  0  0
   30.9630   13.9030    6.1340 N   0  0  0  0  0  0  0  0  0  0  0  0
   29.7140   14.4010    6.4110 C   0  0  0  0  0  0  0  0  0  0  0  0
   28.9250   10.7140    7.9820 C   0  0  0  0  0  0  0  0  0  0  0  0
   27.8130   10.2560    7.4430 N   0  0  0  0  0  0  0  0  0  0  0  0
   24.8497    9.5640    8.8806 H   0  0  0  0  0  0  0  0  0  0  0  0
   23.8507    9.4948    7.3893 H   0  0  0  0  0  0  0  0  0  0  0  0
   25.5127    8.8135    7.3893 H   0  0  0  0  0  0  0  0  0  0  0  0
   25.3846   11.0282    6.2515 H   0  0  0  0  0  0  0  0  0  0  0  0
   24.8095   11.7478    7.8177 H   0  0  0  0  0  0  0  0  0  0  0  0
   26.8533   13.0837    8.9313 H   0  0  0  0  0  0  0  0  0  0  0  0
   25.3972   14.0649    8.3878 H   0  0  0  0  0  0  0  0  0  0  0  0
   24.1368   14.5655   10.4985 H   0  0  0  0  0  0  0  0  0  0  0  0
   28.3589   17.0793    9.4075 H   0  0  0  0  0  0  0  0  0  0  0  0
   28.0518   17.5253   12.3489 H   0  0  0  0  0  0  0  0  0  0  0  0
   27.0891   18.7695   11.5888 H   0  0  0  0  0  0  0  0  0  0  0  0
   24.6260   18.3022   14.1268 H   0  0  0  0  0  0  0  0  0  0  0  0
   25.9415   16.7132   15.4903 H   0  0  0  0  0  0  0  0  0  0  0  0
   27.4129   17.7129   15.2440 H   0  0  0  0  0  0  0  0  0  0  0  0
   24.8170   18.5720   16.6145 H   0  0  0  0  0  0  0  0  0  0  0  0
   26.4173   18.2588   17.3972 H   0  0  0  0  0  0  0  0  0  0  0  0
   26.1615   21.5331   14.8294 H   0  0  0  0  0  0  0  0  0  0  0  0
   26.1343   15.8435    6.2387 H   0  0  0  0  0  0  0  0  0  0  0  0
   27.3582   15.3422    4.1236 H   0  0  0  0  0  0  0  0  0  0  0  0
   29.9751   14.2651    3.1447 H   0  0  0  0  0  0  0  0  0  0  0  0
   31.6368   13.6411    6.8677 H   0  0  0  0  0  0  0  0  0  0  0  0
   29.9093   10.2312    7.8928 H   0  0  0  0  0  0  0  0  0  0  0  0
  1  2  1  0
  2  3  1  0
  3  4  2  0
  4  5  1  0
  5  6  1  0
  6  7  2  0
  6  8  2  0
  6  9  1  0
  9 10  1  0
 10 11  1  0
 11 12  1  0
 12 13  2  0
 13 14  1  0
 14 15  2  0
 15 16  1  0
 16 17  2  0
 16 18  1  0
 18 19  1  0
 19 20  1  0
 20 21  1  0
 21 22  1  0
 22 23  1  0
 23 24  2  0
 23 25  1  0
 25 26  1  0
 26 27  2  0
 19 28  1  0
 28 29  2  0
 11 30  2  0
 30 31  1  0
 31 32  2  0
 32 33  1  0
 33 34  2  0
 34 35  1  0
 35 36  1  0
  5 37  1  0
 37 38  2  0
 38  3  1  0
 36 10  2  0
 17 12  1  0
 26 20  1  0
 36 32  1  0
 28 15  1  0
  1 39  1  0
  1 40  1  0
  1 41  1  0
  2 42  1  0
  2 43  1  0
  4 44  1  0
 13 45  1  0
 14 46  1  0
 17 47  1  0
 18 48  1  0
 18 49  1  0
 20 50  1  1
 21 51  1  0
 21 52  1  0
 22 53  1  0
 22 54  1  0
 25 55  1  0
 30 56  1  0
 31 57  1  0
 33 58  1  0
 35 59  1  0
 37 60  1  0
M  END
>  <meeko>  (643) 
{"is_sidechain": [true], "free_energy": -11.84, "intermolecular_energy": 0.0, "internal_energy": -11.84, "cluster_size": 10, "cluster_id": 1, "rank_in_cluster": 1}

>  <_RMSD_MCS_to_ref>  (643) 
1.4289113817315984

$$$$
ligand
     RDKit          3D

 62 67  0  0  0  0  0  0  0  0999 V2000
   24.8710    9.6160    7.7820 C   0  0  0  0  0  0  0  0  0  0  0  0
   25.4240   10.9650    7.3490 C   0  0  0  0  0  0  0  0  0  0  0  0
   26.6910   10.8310    6.5800 C   0  0  0  0  0  0  0  0  0  0  0  0
   26.9440   11.1460    5.2600 C   0  0  0  0  0  0  0  0  0  0  0  0
   28.2550   10.8070    5.0800 N   0  0  0  0  0  0  0  0  0  0  0  0
   29.1860   11.1620    3.7280 S   0  0  0  0  0  6  0  0  0  0  0  0
   28.4870   10.5740    2.6020 O   0  0  0  0  0  0  0  0  0  0  0  0
   30.5470   10.7990    4.0740 O   0  0  0  0  0  0  0  0  0  0  0  0
   29.0810   12.9270    3.6060 C   0  0  0  0  0  0  0  0  0  0  0  0
   29.7550   13.5880    2.5780 C   0  0  0  0  0  0  0  0  0  0  0  0
   29.6720   14.9760    2.4890 C   0  0  0  0  0  0  0  0  0  0  0  0
   28.9230   15.6920    3.4270 C   0  0  0  0  0  0  0  0  0  0  0  0
   28.2510   15.0390    4.4730 C   0  0  0  0  0  0  0  0  0  0  0  0
   27.4840   15.8230    5.4380 C   0  0  0  0  0  0  0  0  0  0  0  0
   27.1100   15.5020    6.6620 N   0  0  0  0  0  0  0  0  0  0  0  0
   26.4230   16.6100    7.1090 C   0  0  0  0  0  0  0  0  0  0  0  0
   25.8200   16.7030    8.4310 C   0  0  0  0  0  0  0  0  0  0  0  0
   24.5790   16.0930    8.7290 C   0  0  0  0  0  0  0  0  0  0  0  0
   24.0110   16.1920   10.0050 C   0  0  0  0  0  0  0  0  0  0  0  0
   24.7090   16.9020   10.9600 C   0  0  0  0  0  0  0  0  0  0  0  0
   25.9300   17.5130   10.6960 C   0  0  0  0  0  0  0  0  0  0  0  0
   26.4960   17.4230    9.4360 C   0  0  0  0  0  0  0  0  0  0  0  0
   26.4170   18.2220   11.9130 C   0  0  0  0  0  0  0  0  0  0  0  0
   25.4250   17.8590   12.9160 N   0  0  0  0  0  0  0  0  0  0  0  0
   25.3900   18.5110   14.2200 C   0  0  2  0  0  0  0  0  0  0  0  0
   26.4060   19.6430   14.3690 C   0  0  0  0  0  0  0  0  0  0  0  0
   26.2410   20.2910   15.7350 C   0  0  0  0  0  0  0  0  0  0  0  0
   26.3850   19.2760   16.8440 C   0  0  0  0  0  0  0  0  0  0  0  0
   26.7030   19.5950   17.9860 O   0  0  0  0  0  0  0  0  0  0  0  0
   26.0600   17.9790   16.5380 N   0  0  0  0  0  0  0  0  0  0  0  0
   25.5480   17.4900   15.3570 C   0  0  0  0  0  0  0  0  0  0  0  0
   25.1540   16.3270   15.2850 O   0  0  0  0  0  0  0  0  0  0  0  0
   24.3570   17.1680   12.3590 C   0  0  0  0  0  0  0  0  0  0  0  0
   23.3120   16.8400   12.8820 O   0  0  0  0  0  0  0  0  0  0  0  0
   26.4140   17.5660    6.1200 C   0  0  0  0  0  0  0  0  0  0  0  0
   27.0900   17.0740    5.0450 O   0  0  0  0  0  0  0  0  0  0  0  0
   28.3410   13.6420    4.5570 C   0  0  0  0  0  0  0  0  0  0  0  0
   28.7650   10.3580    6.2570 C   0  0  0  0  0  0  0  0  0  0  0  0
   27.8340   10.3490    7.1890 N   0  0  0  0  0  0  0  0  0  0  0  0
   24.8497    9.5640    8.8806 H   0  0  0  0  0  0  0  0  0  0  0  0
   23.8507    9.4948    7.3893 H   0  0  0  0  0  0  0  0  0  0  0  0
   25.5127    8.8135    7.3893 H   0  0  0  0  0  0  0  0  0  0  0  0
   24.6772   11.4680    6.7170 H   0  0  0  0  0  0  0  0  0  0  0  0
   25.6388   11.5494    8.2558 H   0  0  0  0  0  0  0  0  0  0  0  0
   26.2488   11.5725    4.5219 H   0  0  0  0  0  0  0  0  0  0  0  0
   30.3459   13.0188    1.8453 H   0  0  0  0  0  0  0  0  0  0  0  0
   30.1956   15.5080    1.6810 H   0  0  0  0  0  0  0  0  0  0  0  0
   28.8587   16.7870    3.3444 H   0  0  0  0  0  0  0  0  0  0  0  0
   24.0509   15.5310    7.9446 H   0  0  0  0  0  0  0  0  0  0  0  0
   23.0443   15.7212   10.2373 H   0  0  0  0  0  0  0  0  0  0  0  0
   27.4604   17.9070    9.2222 H   0  0  0  0  0  0  0  0  0  0  0  0
   27.4189   17.8715   12.2015 H   0  0  0  0  0  0  0  0  0  0  0  0
   26.5179   19.3084   11.7732 H   0  0  0  0  0  0  0  0  0  0  0  0
   24.3960   18.9768   14.2910 H   0  0  0  0  0  0  0  0  0  0  0  0
   27.4242   19.2374   14.2755 H   0  0  0  0  0  0  0  0  0  0  0  0
   26.2386   20.3938   13.5827 H   0  0  0  0  0  0  0  0  0  0  0  0
   27.0097   21.0681   15.8583 H   0  0  0  0  0  0  0  0  0  0  0  0
   25.2333   20.7283   15.7928 H   0  0  0  0  0  0  0  0  0  0  0  0
   26.2184   17.2857   17.2831 H   0  0  0  0  0  0  0  0  0  0  0  0
   25.9420   18.5574    6.1861 H   0  0  0  0  0  0  0  0  0  0  0  0
   27.8298   13.1067    5.3708 H   0  0  0  0  0  0  0  0  0  0  0  0
   29.8087   10.0459    6.4100 H   0  0  0  0  0  0  0  0  0  0  0  0
  1  2  1  0
  2  3  1  0
  3  4  2  0
  4  5  1  0
  5  6  1  0
  6  7  2  0
  6  8  2  0
  6  9  1  0
  9 10  2  0
 10 11  1  0
 11 12  2  0
 12 13  1  0
 13 14  1  0
 14 15  2  0
 15 16  1  0
 16 17  1  0
 17 18  2  0
 18 19  1  0
 19 20  2  0
 20 21  1  0
 21 22  2  0
 21 23  1  0
 23 24  1  0
 24 25  1  0
 25 26  1  0
 26 27  1  0
 27 28  1  0
 28 29  2  0
 28 30  1  0
 30 31  1  0
 31 32  2  0
 24 33  1  0
 33 34  2  0
 16 35  2  0
 35 36  1  0
 13 37  2  0
  5 38  1  0
 38 39  2  0
 39  3  1  0
 37  9  1  0
 36 14  1  0
 22 17  1  0
 31 25  1  0
 33 20  1  0
  1 40  1  0
  1 41  1  0
  1 42  1  0
  2 43  1  0
  2 44  1  0
  4 45  1  0
 10 46  1  0
 11 47  1  0
 12 48  1  0
 18 49  1  0
 19 50  1  0
 22 51  1  0
 23 52  1  0
 23 53  1  0
 25 54  1  1
 26 55  1  0
 26 56  1  0
 27 57  1  0
 27 58  1  0
 30 59  1  0
 35 60  1  0
 37 61  1  0
 38 62  1  0
M  END
>  <meeko>  (644) 
{"is_sidechain": [true], "free_energy": -11.84, "intermolecular_energy": 0.0, "internal_energy": -11.84, "cluster_size": 20, "cluster_id": 1, "rank_in_cluster": 1}

>  <_RMSD_MCS_to_ref>  (644) 
1.7810024084619789

$$$$
ligand
     RDKit          3D

 51 54  0  0  0  0  0  0  0  0999 V2000
   24.8710    9.6160    7.7820 C   0  0  0  0  0  0  0  0  0  0  0  0
   25.4240   10.9650    7.3490 C   0  0  0  0  0  0  0  0  0  0  0  0
   26.4990   11.4500    8.2560 C   0  0  0  0  0  0  0  0  0  0  0  0
   27.4360   12.4400    8.0360 C   0  0  0  0  0  0  0  0  0  0  0  0
   28.1770   12.4600    9.1830 N   0  0  0  0  0  0  0  0  0  0  0  0
   29.3170   13.6250    9.6210 S   0  0  0  0  0  6  0  0  0  0  0  0
   29.6530   13.2900   10.9930 O   0  0  0  0  0  0  0  0  0  0  0  0
   30.3240   13.5980    8.5770 O   0  0  0  0  0  0  0  0  0  0  0  0
   28.5850   15.0890    9.6300 O   0  0  0  0  0  0  0  0  0  0  0  0
   27.2380   15.2220    9.8400 C   0  0  0  0  0  0  0  0  0  0  0  0
   26.4090   14.9050    8.7640 C   0  0  0  0  0  0  0  0  0  0  0  0
   25.0220   14.9880    8.9010 C   0  0  0  0  0  0  0  0  0  0  0  0
   24.4710   15.3940   10.1210 C   0  0  0  0  0  0  0  0  0  0  0  0
   23.0080   15.4570   10.2920 C   0  0  0  0  0  0  0  0  0  0  0  0
   22.2470   15.1840    9.3710 O   0  0  0  0  0  0  0  0  0  0  0  0
   22.5600   15.8190   11.5410 N   0  0  0  0  0  0  0  0  0  0  0  0
   23.3390   16.1900   12.5960 N   0  0  0  0  0  0  0  0  0  0  0  0
   24.6320   16.1580   12.4370 C   0  0  0  0  0  0  0  0  0  0  0  0
   25.4640   16.6260   13.6210 C   0  0  0  0  0  0  0  0  0  0  0  0
   26.0860   15.8200   14.2950 O   0  0  0  0  0  0  0  0  0  0  0  0
   25.4440   17.9870   13.8110 N   0  0  0  0  0  0  0  0  0  0  0  0
   26.3460   18.6320   14.7490 C   0  0  2  0  0  0  0  0  0  0  0  0
   26.1190   18.1620   16.1820 C   0  0  0  0  0  0  0  0  0  0  0  0
   27.0680   18.8980   17.1160 C   0  0  0  0  0  0  0  0  0  0  0  0
   26.9130   20.3950   16.9860 C   0  0  0  0  0  0  0  0  0  0  0  0
   27.0680   21.1580   17.9350 O   0  0  0  0  0  0  0  0  0  0  0  0
   26.6210   20.8760   15.7350 N   0  0  0  0  0  0  0  0  0  0  0  0
   26.1310   20.1480   14.6790 C   0  0  0  0  0  0  0  0  0  0  0  0
   25.5730   20.7000   13.7320 O   0  0  0  0  0  0  0  0  0  0  0  0
   25.2950   15.7130   11.1970 C   0  0  0  0  0  0  0  0  0  0  0  0
   26.6860   15.5940   11.0680 C   0  0  0  0  0  0  0  0  0  0  0  0
   27.6720   11.5510   10.0550 C   0  0  0  0  0  0  0  0  0  0  0  0
   26.6550   10.9110    9.5180 N   0  0  0  0  0  0  0  0  0  0  0  0
   24.8497    9.5640    8.8806 H   0  0  0  0  0  0  0  0  0  0  0  0
   23.8507    9.4948    7.3893 H   0  0  0  0  0  0  0  0  0  0  0  0
   25.5127    8.8135    7.3893 H   0  0  0  0  0  0  0  0  0  0  0  0
   25.8343   10.8698    6.3328 H   0  0  0  0  0  0  0  0  0  0  0  0
   24.6005   11.6935    7.3822 H   0  0  0  0  0  0  0  0  0  0  0  0
   27.5578   13.0687    7.1416 H   0  0  0  0  0  0  0  0  0  0  0  0
   26.8485   14.5892    7.8063 H   0  0  0  0  0  0  0  0  0  0  0  0
   24.3664   14.7356    8.0546 H   0  0  0  0  0  0  0  0  0  0  0  0
   21.5413   15.8088   11.6931 H   0  0  0  0  0  0  0  0  0  0  0  0
   24.7758   18.5612   13.2774 H   0  0  0  0  0  0  0  0  0  0  0  0
   27.3753   18.3642   14.4684 H   0  0  0  0  0  0  0  0  0  0  0  0
   25.0799   18.3717   16.4759 H   0  0  0  0  0  0  0  0  0  0  0  0
   26.3083   17.0803   16.2464 H   0  0  0  0  0  0  0  0  0  0  0  0
   26.8501   18.6037   18.1533 H   0  0  0  0  0  0  0  0  0  0  0  0
   28.0999   18.6304   16.8447 H   0  0  0  0  0  0  0  0  0  0  0  0
   26.7851   21.8797   15.5722 H   0  0  0  0  0  0  0  0  0  0  0  0
   27.3398   15.7927   11.9300 H   0  0  0  0  0  0  0  0  0  0  0  0
   28.0588   11.3738   11.0694 H   0  0  0  0  0  0  0  0  0  0  0  0
  1  2  1  0
  2  3  1  0
  3  4  2  0
  4  5  1  0
  5  6  1  0
  6  7  2  0
  6  8  2  0
  6  9  1  0
  9 10  1  0
 10 11  2  0
 11 12  1  0
 12 13  2  0
 13 14  1  0
 14 15  2  0
 14 16  1  0
 16 17  1  0
 17 18  2  0
 18 19  1  0
 19 20  2  0
 19 21  1  0
 21 22  1  0
 22 23  1  0
 23 24  1  0
 24 25  1  0
 25 26  2  0
 25 27  1  0
 27 28  1  0
 28 29  2  0
 18 30  1  0
 30 31  2  0
  5 32  1  0
 32 33  2  0
 33  3  1  0
 31 10  1  0
 30 13  1  0
 28 22  1  0
  1 34  1  0
  1 35  1  0
  1 36  1  0
  2 37  1  0
  2 38  1  0
  4 39  1  0
 11 40  1  0
 12 41  1  0
 16 42  1  0
 21 43  1  0
 22 44  1  6
 23 45  1  0
 23 46  1  0
 24 47  1  0
 24 48  1  0
 27 49  1  0
 31 50  1  0
 32 51  1  0
M  END
>  <meeko>  (645) 
{"is_sidechain": [true], "free_energy": -11.84, "intermolecular_energy": 0.0, "internal_energy": -11.84, "cluster_size": 4, "cluster_id": 1, "rank_in_cluster": 1}

>  <_RMSD_MCS_to_ref>  (645) 
1.1875852717922102

$$$$
ligand
     RDKit          3D

 51 54  0  0  0  0  0  0  0  0999 V2000
   24.8710    9.6160    7.7820 C   0  0  0  0  0  0  0  0  0  0  0  0
   25.4240   10.9650    7.3490 C   0  0  0  0  0  0  0  0  0  0  0  0
   26.5040   11.4450    8.2550 C   0  0  0  0  0  0  0  0  0  0  0  0
   27.2620   12.5960    8.1660 C   0  0  0  0  0  0  0  0  0  0  0  0
   28.0880   12.5360    9.2500 N   0  0  0  0  0  0  0  0  0  0  0  0
   29.3250   13.6250    9.6090 S   0  0  0  0  0  6  0  0  0  0  0  0
   29.7510   13.2300   10.9380 O   0  0  0  0  0  0  0  0  0  0  0  0
   30.2310   13.5670    8.4780 O   0  0  0  0  0  0  0  0  0  0  0  0
   28.6840   15.1230    9.7120 O   0  0  0  0  0  0  0  0  0  0  0  0
   27.3520   15.4190    9.8730 C   0  0  0  0  0  0  0  0  0  0  0  0
   26.7340   15.7640   11.0130 C   0  0  0  0  0  0  0  0  0  0  0  0
   25.3060   16.1230   11.0060 C   0  0  0  0  0  0  0  0  0  0  0  0
   24.6310   16.6520   12.1130 C   0  0  0  0  0  0  0  0  0  0  0  0
   25.3280   16.9590   13.3720 C   0  0  0  0  0  0  0  0  0  0  0  0
   25.9540   16.0890   13.9600 O   0  0  0  0  0  0  0  0  0  0  0  0
   25.2850   18.2800   13.7490 N   0  0  0  0  0  0  0  0  0  0  0  0
   26.2180   18.7920   14.7470 C   0  0  2  0  0  0  0  0  0  0  0  0
   25.9220   18.2640   16.1440 C   0  0  0  0  0  0  0  0  0  0  0  0
   26.9160   18.8660   17.1260 C   0  0  0  0  0  0  0  0  0  0  0  0
   26.9030   20.3760   17.0690 C   0  0  0  0  0  0  0  0  0  0  0  0
   27.0710   21.0740   18.0640 O   0  0  0  0  0  0  0  0  0  0  0  0
   26.7100   20.9440   15.8350 N   0  0  0  0  0  0  0  0  0  0  0  0
   26.1260   20.3210   14.7600 C   0  0  0  0  0  0  0  0  0  0  0  0
   25.5540   20.9600   13.8770 O   0  0  0  0  0  0  0  0  0  0  0  0
   23.2800   16.9580   12.0010 C   0  0  0  0  0  0  0  0  0  0  0  0
   22.5670   16.7890   10.8620 N   0  0  0  0  0  0  0  0  0  0  0  0
   23.2370   16.3040    9.7880 C   0  0  0  0  0  0  0  0  0  0  0  0
   24.5840   15.9730    9.8170 C   0  0  0  0  0  0  0  0  0  0  0  0
   25.2790   15.5280    8.5950 C   0  0  0  0  0  0  0  0  0  0  0  0
   24.6830   15.3800    7.5360 O   0  0  0  0  0  0  0  0  0  0  0  0
   26.6340   15.3170    8.7100 N   0  0  0  0  0  0  0  0  0  0  0  0
   27.8140   11.4120    9.9610 C   0  0  0  0  0  0  0  0  0  0  0  0
   26.8700   10.7090    9.3680 N   0  0  0  0  0  0  0  0  0  0  0  0
   24.8497    9.5640    8.8806 H   0  0  0  0  0  0  0  0  0  0  0  0
   23.8507    9.4948    7.3893 H   0  0  0  0  0  0  0  0  0  0  0  0
   25.5127    8.8135    7.3893 H   0  0  0  0  0  0  0  0  0  0  0  0
   25.8305   10.8715    6.3311 H   0  0  0  0  0  0  0  0  0  0  0  0
   24.6022   11.6953    7.3852 H   0  0  0  0  0  0  0  0  0  0  0  0
   27.2113   13.3812    7.3973 H   0  0  0  0  0  0  0  0  0  0  0  0
   27.2972   15.7787   11.9578 H   0  0  0  0  0  0  0  0  0  0  0  0
   24.5907   18.9116   13.3249 H   0  0  0  0  0  0  0  0  0  0  0  0
   27.2280   18.4526   14.4736 H   0  0  0  0  0  0  0  0  0  0  0  0
   24.8996   18.5465   16.4354 H   0  0  0  0  0  0  0  0  0  0  0  0
   26.0116   17.1677   16.1520 H   0  0  0  0  0  0  0  0  0  0  0  0
   26.6524   18.5442   18.1443 H   0  0  0  0  0  0  0  0  0  0  0  0
   27.9238   18.5184   16.8548 H   0  0  0  0  0  0  0  0  0  0  0  0
   27.0285   21.9148   15.7048 H   0  0  0  0  0  0  0  0  0  0  0  0
   22.7620   17.3589   12.8847 H   0  0  0  0  0  0  0  0  0  0  0  0
   22.6851   16.1660    8.8465 H   0  0  0  0  0  0  0  0  0  0  0  0
   27.1490   15.0625    7.8551 H   0  0  0  0  0  0  0  0  0  0  0  0
   28.3105   11.1279   10.9006 H   0  0  0  0  0  0  0  0  0  0  0  0
  1  2  1  0
  2  3  1  0
  3  4  2  0
  4  5  1  0
  5  6  1  0
  6  7  2  0
  6  8  2  0
  6  9  1  0
  9 10  1  0
 10 11  2  0
 11 12  1  0
 12 13  2  0
 13 14  1  0
 14 15  2  0
 14 16  1  0
 16 17  1  0
 17 18  1  0
 18 19  1  0
 19 20  1  0
 20 21  2  0
 20 22  1  0
 22 23  1  0
 23 24  2  0
 13 25  1  0
 25 26  2  0
 26 27  1  0
 27 28  2  0
 28 29  1  0
 29 30  2  0
 29 31  1  0
  5 32  1  0
 32 33  2  0
 33  3  1  0
 31 10  1  0
 28 12  1  0
 23 17  1  0
  1 34  1  0
  1 35  1  0
  1 36  1  0
  2 37  1  0
  2 38  1  0
  4 39  1  0
 11 40  1  0
 16 41  1  0
 17 42  1  6
 18 43  1  0
 18 44  1  0
 19 45  1  0
 19 46  1  0
 22 47  1  0
 25 48  1  0
 27 49  1  0
 31 50  1  0
 32 51  1  0
M  END
>  <meeko>  (646) 
{"is_sidechain": [true], "free_energy": -11.84, "intermolecular_energy": 0.0, "internal_energy": -11.84, "cluster_size": 6, "cluster_id": 1, "rank_in_cluster": 1}

>  <_RMSD_MCS_to_ref>  (646) 
1.2261076624831937

$$$$
ligand
     RDKit          3D

 55 59  0  0  0  0  0  0  0  0999 V2000
   24.8710    9.6160    7.7820 C   0  0  0  0  0  0  0  0  0  0  0  0
   25.4240   10.9650    7.3490 C   0  0  0  0  0  0  0  0  0  0  0  0
   26.7690   10.8480    6.7240 C   0  0  0  0  0  0  0  0  0  0  0  0
   28.0130   10.9090    7.3200 C   0  0  0  0  0  0  0  0  0  0  0  0
   28.8890   10.7090    6.2920 N   0  0  0  0  0  0  0  0  0  0  0  0
   30.5600   10.9270    6.3650 S   0  0  0  0  0  6  0  0  0  0  0  0
   31.0390   10.5060    5.0610 O   0  0  0  0  0  0  0  0  0  0  0  0
   30.9580   10.2500    7.5850 O   0  0  0  0  0  0  0  0  0  0  0  0
   30.7830   12.5390    6.5280 O   0  0  0  0  0  0  0  0  0  0  0  0
   30.4900   13.1120    7.7420 C   0  0  0  0  0  0  0  0  0  0  0  0
   31.4420   13.0700    8.7690 C   0  0  0  0  0  0  0  0  0  0  0  0
   31.1720   13.6660   10.0000 C   0  0  0  0  0  0  0  0  0  0  0  0
   29.9590   14.3180   10.2060 C   0  0  0  0  0  0  0  0  0  0  0  0
   29.0120   14.3770    9.1650 C   0  0  0  0  0  0  0  0  0  0  0  0
   29.2590   13.7820    7.9060 C   0  0  0  0  0  0  0  0  0  0  0  0
   28.2770   13.8820    6.8940 C   0  0  0  0  0  0  0  0  0  0  0  0
   27.0590   14.5520    7.0990 C   0  0  0  0  0  0  0  0  0  0  0  0
   26.8100   15.1400    8.3490 C   0  0  0  0  0  0  0  0  0  0  0  0
   25.7400   15.8760    8.9230 C   0  0  0  0  0  0  0  0  0  0  0  0
   26.1100   16.1790   10.2180 C   0  0  0  0  0  0  0  0  0  0  0  0
   25.4160   16.9080   11.2580 C   0  0  0  0  0  0  0  0  0  0  0  0
   24.3060   17.4120   11.1130 O   0  0  0  0  0  0  0  0  0  0  0  0
   26.1140   17.0030   12.4410 N   0  0  0  0  0  0  0  0  0  0  0  0
   25.6630   17.8300   13.5450 C   0  0  1  0  0  0  0  0  0  0  0  0
   26.1020   17.2750   14.8960 C   0  0  0  0  0  0  0  0  0  0  0  0
   25.6250   18.2010   16.0050 C   0  0  0  0  0  0  0  0  0  0  0  0
   26.1170   19.6130   15.7890 C   0  0  0  0  0  0  0  0  0  0  0  0
   26.3990   20.3610   16.7200 O   0  0  0  0  0  0  0  0  0  0  0  0
   26.2060   20.0410   14.4880 N   0  0  0  0  0  0  0  0  0  0  0  0
   26.2390   19.2400   13.3740 C   0  0  0  0  0  0  0  0  0  0  0  0
   26.6960   19.6530   12.3090 O   0  0  0  0  0  0  0  0  0  0  0  0
   27.3560   15.6700   10.4730 O   0  0  0  0  0  0  0  0  0  0  0  0
   27.7800   15.0390    9.3390 C   0  0  0  0  0  0  0  0  0  0  0  0
   28.1940   10.6200    5.1280 C   0  0  0  0  0  0  0  0  0  0  0  0
   26.8980   10.6740    5.3600 N   0  0  0  0  0  0  0  0  0  0  0  0
   24.8497    9.5640    8.8806 H   0  0  0  0  0  0  0  0  0  0  0  0
   23.8507    9.4948    7.3893 H   0  0  0  0  0  0  0  0  0  0  0  0
   25.5127    8.8135    7.3893 H   0  0  0  0  0  0  0  0  0  0  0  0
   24.7328   11.4135    6.6203 H   0  0  0  0  0  0  0  0  0  0  0  0
   25.5229   11.5927    8.2469 H   0  0  0  0  0  0  0  0  0  0  0  0
   28.2454   11.0799    8.3815 H   0  0  0  0  0  0  0  0  0  0  0  0
   32.4053   12.5653    8.6036 H   0  0  0  0  0  0  0  0  0  0  0  0
   31.9169   13.6212   10.8082 H   0  0  0  0  0  0  0  0  0  0  0  0
   29.7412   14.7851   11.1778 H   0  0  0  0  0  0  0  0  0  0  0  0
   28.4726   13.4206    5.9148 H   0  0  0  0  0  0  0  0  0  0  0  0
   26.3129   14.6147    6.2931 H   0  0  0  0  0  0  0  0  0  0  0  0
   24.7963   16.1521    8.4299 H   0  0  0  0  0  0  0  0  0  0  0  0
   26.9877   16.4678   12.5462 H   0  0  0  0  0  0  0  0  0  0  0  0
   24.5632   17.8456   13.5297 H   0  0  0  0  0  0  0  0  0  0  0  0
   25.6664   16.2753   15.0406 H   0  0  0  0  0  0  0  0  0  0  0  0
   27.1994   17.2049   14.9241 H   0  0  0  0  0  0  0  0  0  0  0  0
   24.5251   18.2032   16.0220 H   0  0  0  0  0  0  0  0  0  0  0  0
   26.0276   17.8349   16.9610 H   0  0  0  0  0  0  0  0  0  0  0  0
   26.2524   21.0582   14.3332 H   0  0  0  0  0  0  0  0  0  0  0  0
   28.6492   10.5173    4.1319 H   0  0  0  0  0  0  0  0  0  0  0  0
  1  2  1  0
  2  3  1  0
  3  4  2  0
  4  5  1  0
  5  6  1  0
  6  7  2  0
  6  8  2  0
  6  9  1  0
  9 10  1  0
 10 11  2  0
 11 12  1  0
 12 13  2  0
 13 14  1  0
 14 15  2  0
 15 16  1  0
 16 17  2  0
 17 18  1  0
 18 19  1  0
 19 20  2  0
 20 21  1  0
 21 22  2  0
 21 23  1  0
 23 24  1  0
 24 25  1  0
 25 26  1  0
 26 27  1  0
 27 28  2  0
 27 29  1  0
 29 30  1  0
 30 31  2  0
 20 32  1  0
 32 33  1  0
  5 34  1  0
 34 35  2  0
 35  3  1  0
 15 10  1  0
 33 18  2  0
 33 14  1  0
 30 24  1  0
  1 36  1  0
  1 37  1  0
  1 38  1  0
  2 39  1  0
  2 40  1  0
  4 41  1  0
 11 42  1  0
 12 43  1  0
 13 44  1  0
 16 45  1  0
 17 46  1  0
 19 47  1  0
 23 48  1  0
 24 49  1  1
 25 50  1  0
 25 51  1  0
 26 52  1  0
 26 53  1  0
 29 54  1  0
 34 55  1  0
M  END
>  <meeko>  (647) 
{"is_sidechain": [true], "free_energy": -11.83, "intermolecular_energy": 0.0, "internal_energy": -11.83, "cluster_size": 20, "cluster_id": 1, "rank_in_cluster": 1}

>  <_RMSD_MCS_to_ref>  (647) 
1.3938396209352384

$$$$
ligand
     RDKit          3D

 62 67  0  0  0  0  0  0  0  0999 V2000
   24.8710    9.6170    7.7810 C   0  0  0  0  0  0  0  0  0  0  0  0
   25.4240   10.9640    7.3500 C   0  0  0  0  0  0  0  0  0  0  0  0
   26.8180   11.1850    7.8240 C   0  0  0  0  0  0  0  0  0  0  0  0
   27.3120   12.2010    8.6210 C   0  0  0  0  0  0  0  0  0  0  0  0
   28.6440   11.9270    8.7190 N   0  0  0  0  0  0  0  0  0  0  0  0
   29.7950   12.8810    9.4940 S   0  0  0  0  0  6  0  0  0  0  0  0
   29.4710   12.7620   10.9050 O   0  0  0  0  0  0  0  0  0  0  0  0
   31.0590   12.4050    8.9650 O   0  0  0  0  0  0  0  0  0  0  0  0
   29.5550   14.4110    8.9660 O   0  0  0  0  0  0  0  0  0  0  0  0
   28.9980   14.5900    7.7230 C   0  0  0  0  0  0  0  0  0  0  0  0
   29.7330   14.1990    6.6020 C   0  0  0  0  0  0  0  0  0  0  0  0
   29.1390   14.3660    5.3710 C   0  0  0  0  0  0  0  0  0  0  0  0
   27.8670   14.8990    5.2330 C   0  0  0  0  0  0  0  0  0  0  0  0
   27.1280   15.2840    6.3390 C   0  0  0  0  0  0  0  0  0  0  0  0
   27.6880   15.1190    7.6170 C   0  0  0  0  0  0  0  0  0  0  0  0
   26.9210   15.4980    8.8090 C   0  0  0  0  0  0  0  0  0  0  0  0
   25.6910   14.8550    9.0940 C   0  0  0  0  0  0  0  0  0  0  0  0
   24.9590   15.1700   10.2410 C   0  0  0  0  0  0  0  0  0  0  0  0
   25.4870   16.1240   11.0870 C   0  0  0  0  0  0  0  0  0  0  0  0
   26.6940   16.7710   10.8350 C   0  0  0  0  0  0  0  0  0  0  0  0
   27.4170   16.4790    9.6900 C   0  0  0  0  0  0  0  0  0  0  0  0
   26.9990   17.7300   11.9380 C   0  0  0  0  0  0  0  0  0  0  0  0
   25.8970   17.5050   12.8630 N   0  0  0  0  0  0  0  0  0  0  0  0
   25.6570   18.3230   14.0440 C   0  0  1  0  0  0  0  0  0  0  0  0
   26.3160   17.7490   15.2950 C   0  0  0  0  0  0  0  0  0  0  0  0
   25.9440   18.6000   16.4980 C   0  0  0  0  0  0  0  0  0  0  0  0
   26.3150   20.0480   16.2780 C   0  0  0  0  0  0  0  0  0  0  0  0
   26.7010   20.7740   17.1900 O   0  0  0  0  0  0  0  0  0  0  0  0
   26.1790   20.5300   15.0020 N   0  0  0  0  0  0  0  0  0  0  0  0
   26.1240   19.7750   13.8510 C   0  0  0  0  0  0  0  0  0  0  0  0
   26.4370   20.2680   12.7700 O   0  0  0  0  0  0  0  0  0  0  0  0
   24.9540   16.6270   12.3570 C   0  0  0  0  0  0  0  0  0  0  0  0
   23.8900   16.3010   12.8450 O   0  0  0  0  0  0  0  0  0  0  0  0
   27.5440   15.0200    3.7920 C   0  0  0  0  0  0  0  0  0  0  0  0
   28.6520   14.1330    3.2210 C   0  0  0  0  0  0  0  0  0  0  0  0
   29.7340   14.0470    4.1790 O   0  0  0  0  0  0  0  0  0  0  0  0
   28.9360   10.8370    7.9650 C   0  0  0  0  0  0  0  0  0  0  0  0
   27.8370   10.3330    7.4400 N   0  0  0  0  0  0  0  0  0  0  0  0
   24.8493    9.5641    8.8795 H   0  0  0  0  0  0  0  0  0  0  0  0
   23.8507    9.4967    7.3878 H   0  0  0  0  0  0  0  0  0  0  0  0
   25.5124    8.8145    7.3878 H   0  0  0  0  0  0  0  0  0  0  0  0
   25.4125   11.0150    6.2512 H   0  0  0  0  0  0  0  0  0  0  0  0
   24.7908   11.7444    7.7972 H   0  0  0  0  0  0  0  0  0  0  0  0
   26.7581   13.0375    9.0720 H   0  0  0  0  0  0  0  0  0  0  0  0
   30.7437   13.7755    6.6982 H   0  0  0  0  0  0  0  0  0  0  0  0
   26.1214   15.7110    6.2192 H   0  0  0  0  0  0  0  0  0  0  0  0
   25.3057   14.0940    8.3994 H   0  0  0  0  0  0  0  0  0  0  0  0
   24.0003   14.6776   10.4612 H   0  0  0  0  0  0  0  0  0  0  0  0
   28.3597   17.0027    9.4730 H   0  0  0  0  0  0  0  0  0  0  0  0
   27.9664   17.5005   12.4085 H   0  0  0  0  0  0  0  0  0  0  0  0
   27.0836   18.7738   11.6014 H   0  0  0  0  0  0  0  0  0  0  0  0
   24.5661   18.3149   14.1853 H   0  0  0  0  0  0  0  0  0  0  0  0
   25.9672   16.7178   15.4531 H   0  0  0  0  0  0  0  0  0  0  0  0
   27.4086   17.7505   15.1680 H   0  0  0  0  0  0  0  0  0  0  0  0
   24.8593   18.5290   16.6662 H   0  0  0  0  0  0  0  0  0  0  0  0
   26.4971   18.2275   17.3728 H   0  0  0  0  0  0  0  0  0  0  0  0
   26.1116   21.5521   14.8937 H   0  0  0  0  0  0  0  0  0  0  0  0
   26.5424   14.6290    3.5599 H   0  0  0  0  0  0  0  0  0  0  0  0
   27.5120   16.0472    3.3998 H   0  0  0  0  0  0  0  0  0  0  0  0
   28.2534   13.1267    3.0249 H   0  0  0  0  0  0  0  0  0  0  0  0
   29.0243   14.5659    2.2808 H   0  0  0  0  0  0  0  0  0  0  0  0
   29.9472   10.4314    7.8134 H   0  0  0  0  0  0  0  0  0  0  0  0
  1  2  1  0
  2  3  1  0
  3  4  2  0
  4  5  1  0
  5  6  1  0
  6  7  2  0
  6  8  2  0
  6  9  1  0
  9 10  1  0
 10 11  2  0
 11 12  1  0
 12 13  2  0
 13 14  1  0
 14 15  2  0
 15 16  1  0
 16 17  2  0
 17 18  1  0
 18 19  2  0
 19 20  1  0
 20 21  2  0
 20 22  1  0
 22 23  1  0
 23 24  1  0
 24 25  1  0
 25 26  1  0
 26 27  1  0
 27 28  2  0
 27 29  1  0
 29 30  1  0
 30 31  2  0
 23 32  1  0
 32 33  2  0
 13 34  1  0
 34 35  1  0
 35 36  1  0
  5 37  1  0
 37 38  2  0
 38  3  1  0
 15 10  1  0
 21 16  1  0
 30 24  1  0
 36 12  1  0
 32 19  1  0
  1 39  1  0
  1 40  1  0
  1 41  1  0
  2 42  1  0
  2 43  1  0
  4 44  1  0
 11 45  1  0
 14 46  1  0
 17 47  1  0
 18 48  1  0
 21 49  1  0
 22 50  1  0
 22 51  1  0
 24 52  1  1
 25 53  1  0
 25 54  1  0
 26 55  1  0
 26 56  1  0
 29 57  1  0
 34 58  1  0
 34 59  1  0
 35 60  1  0
 35 61  1  0
 37 62  1  0
M  END
>  <meeko>  (648) 
{"is_sidechain": [true], "free_energy": -11.83, "intermolecular_energy": 0.0, "internal_energy": -11.83, "cluster_size": 7, "cluster_id": 1, "rank_in_cluster": 1}

>  <_RMSD_MCS_to_ref>  (648) 
1.3606245663394128

$$$$
ligand
     RDKit          3D

 56 60  0  0  0  0  0  0  0  0999 V2000
   24.8540    9.4020    7.6050 C   0  0  0  0  0  0  0  0  0  0  0  0
   25.5230   10.7550    7.4270 C   0  0  0  0  0  0  0  0  0  0  0  0
   24.7210   11.6700    6.5700 C   0  0  0  0  0  0  0  0  0  0  0  0
   24.8770   11.9690    5.2310 C   0  0  0  0  0  0  0  0  0  0  0  0
   23.8510   12.8280    4.9560 N   0  0  0  0  0  0  0  0  0  0  0  0
   23.6730   13.7260    3.5430 S   0  0  0  0  0  6  0  0  0  0  0  0
   22.2470   13.7210    3.2770 O   0  0  0  0  0  0  0  0  0  0  0  0
   24.6240   13.1470    2.6130 O   0  0  0  0  0  0  0  0  0  0  0  0
   24.1410   15.2420    3.9120 O   0  0  0  0  0  0  0  0  0  0  0  0
   25.1770   15.4950    4.7710 C   0  0  0  0  0  0  0  0  0  0  0  0
   26.5270   15.5210    4.4500 C   0  0  0  0  0  0  0  0  0  0  0  0
   27.5030   15.7730    5.3510 N   0  0  0  0  0  0  0  0  0  0  0  0
   27.1160   16.0120    6.6270 C   0  0  0  0  0  0  0  0  0  0  0  0
   25.7920   16.0140    7.0680 C   0  0  0  0  0  0  0  0  0  0  0  0
   25.4390   16.2800    8.4700 C   0  0  0  0  0  0  0  0  0  0  0  0
   24.2080   15.8190    9.0060 C   0  0  0  0  0  0  0  0  0  0  0  0
   23.8400   16.0550   10.3390 C   0  0  0  0  0  0  0  0  0  0  0  0
   24.7170   16.7600   11.1390 C   0  0  0  0  0  0  0  0  0  0  0  0
   25.9240   17.2180   10.6170 C   0  0  0  0  0  0  0  0  0  0  0  0
   26.3100   16.9960    9.3080 C   0  0  0  0  0  0  0  0  0  0  0  0
   26.6490   17.9120   11.6850 C   0  0  0  0  0  0  0  0  0  0  0  0
   27.7700   18.3700   11.5860 O   0  0  0  0  0  0  0  0  0  0  0  0
   25.8290   17.8980   12.8020 N   0  0  0  0  0  0  0  0  0  0  0  0
   26.2940   18.3280   14.1180 C   0  0  2  0  0  0  0  0  0  0  0  0
   25.8870   17.3190   15.1930 C   0  0  0  0  0  0  0  0  0  0  0  0
   26.4940   17.7170   16.5290 C   0  0  0  0  0  0  0  0  0  0  0  0
   26.0990   19.1230   16.9110 C   0  0  0  0  0  0  0  0  0  0  0  0
   25.9310   19.4660   18.0770 O   0  0  0  0  0  0  0  0  0  0  0  0
   25.9600   20.0210   15.8830 N   0  0  0  0  0  0  0  0  0  0  0  0
   25.8420   19.7350   14.5420 C   0  0  0  0  0  0  0  0  0  0  0  0
   25.4220   20.5910   13.7680 O   0  0  0  0  0  0  0  0  0  0  0  0
   24.5950   17.1540   12.5760 C   0  0  0  0  0  0  0  0  0  0  0  0
   24.8160   15.7460    6.0960 C   0  0  0  0  0  0  0  0  0  0  0  0
   23.1720   13.0890    6.1030 C   0  0  0  0  0  0  0  0  0  0  0  0
   23.6620   12.3820    7.1000 N   0  0  0  0  0  0  0  0  0  0  0  0
   24.7464    9.1845    8.6779 H   0  0  0  0  0  0  0  0  0  0  0  0
   23.8606    9.4192    7.1330 H   0  0  0  0  0  0  0  0  0  0  0  0
   25.4708    8.6230    7.1330 H   0  0  0  0  0  0  0  0  0  0  0  0
   25.6529   11.2188    8.4159 H   0  0  0  0  0  0  0  0  0  0  0  0
   26.4914   10.5905    6.9318 H   0  0  0  0  0  0  0  0  0  0  0  0
   25.6512   11.5996    4.5425 H   0  0  0  0  0  0  0  0  0  0  0  0
   26.8183   15.3263    3.4073 H   0  0  0  0  0  0  0  0  0  0  0  0
   27.9016   16.2193    7.3686 H   0  0  0  0  0  0  0  0  0  0  0  0
   23.5206   15.2587    8.3552 H   0  0  0  0  0  0  0  0  0  0  0  0
   22.8812   15.6892   10.7351 H   0  0  0  0  0  0  0  0  0  0  0  0
   27.2739   17.3702    8.9326 H   0  0  0  0  0  0  0  0  0  0  0  0
   27.3887   18.3766   14.0214 H   0  0  0  0  0  0  0  0  0  0  0  0
   24.7907   17.3012   15.2808 H   0  0  0  0  0  0  0  0  0  0  0  0
   26.2525   16.3205   14.9110 H   0  0  0  0  0  0  0  0  0  0  0  0
   26.1409   17.0218   17.3049 H   0  0  0  0  0  0  0  0  0  0  0  0
   27.5896   17.6750   16.4401 H   0  0  0  0  0  0  0  0  0  0  0  0
   25.9420   21.0174   16.1432 H   0  0  0  0  0  0  0  0  0  0  0  0
   24.5383   16.2697   13.2278 H   0  0  0  0  0  0  0  0  0  0  0  0
   23.6859   17.7323   12.7978 H   0  0  0  0  0  0  0  0  0  0  0  0
   23.7538   15.7335    6.3815 H   0  0  0  0  0  0  0  0  0  0  0  0
   22.3306   13.7925    6.1873 H   0  0  0  0  0  0  0  0  0  0  0  0
  1  2  1  0
  2  3  1  0
  3  4  2  0
  4  5  1  0
  5  6  1  0
  6  7  2  0
  6  8  2  0
  6  9  1  0
  9 10  1  0
 10 11  2  0
 11 12  1  0
 12 13  2  0
 13 14  1  0
 14 15  1  0
 15 16  2  0
 16 17  1  0
 17 18  2  0
 18 19  1  0
 19 20  2  0
 19 21  1  0
 21 22  2  0
 21 23  1  0
 23 24  1  0
 24 25  1  0
 25 26  1  0
 26 27  1  0
 27 28  2  0
 27 29  1  0
 29 30  1  0
 30 31  2  0
 23 32  1  0
 14 33  2  0
  5 34  1  0
 34 35  2  0
 35  3  1  0
 33 10  1  0
 20 15  1  0
 30 24  1  0
 32 18  1  0
  1 36  1  0
  1 37  1  0
  1 38  1  0
  2 39  1  0
  2 40  1  0
  4 41  1  0
 11 42  1  0
 13 43  1  0
 16 44  1  0
 17 45  1  0
 20 46  1  0
 24 47  1  6
 25 48  1  0
 25 49  1  0
 26 50  1  0
 26 51  1  0
 29 52  1  0
 32 53  1  0
 32 54  1  0
 33 55  1  0
 34 56  1  0
M  END
>  <meeko>  (649) 
{"is_sidechain": [true], "free_energy": -11.82, "intermolecular_energy": 0.0, "internal_energy": -11.82, "cluster_size": 12, "cluster_id": 1, "rank_in_cluster": 1}

>  <_RMSD_MCS_to_ref>  (649) 
1.15922301564453

$$$$
ligand
     RDKit          3D

 55 59  0  0  0  0  0  0  0  0999 V2000
   24.8540    9.4020    7.6050 C   0  0  0  0  0  0  0  0  0  0  0  0
   25.5230   10.7550    7.4270 C   0  0  0  0  0  0  0  0  0  0  0  0
   24.9410   11.5200    6.2910 C   0  0  0  0  0  0  0  0  0  0  0  0
   25.1740   12.8280    5.9170 C   0  0  0  0  0  0  0  0  0  0  0  0
   24.4060   12.9980    4.8000 N   0  0  0  0  0  0  0  0  0  0  0  0
   24.3660   14.3700    3.8320 S   0  0  0  0  0  6  0  0  0  0  0  0
   25.1280   14.0520    2.6400 O   0  0  0  0  0  0  0  0  0  0  0  0
   22.9640   14.7400    3.7730 O   0  0  0  0  0  0  0  0  0  0  0  0
   25.2120   15.6520    4.6850 C   0  0  0  0  0  0  0  0  0  0  0  0
   26.0310   16.5280    3.9450 C   0  0  0  0  0  0  0  0  0  0  0  0
   26.7200   17.5720    4.5770 C   0  0  0  0  0  0  0  0  0  0  0  0
   26.6160   17.7800    5.9570 C   0  0  0  0  0  0  0  0  0  0  0  0
   25.7970   16.8920    6.6420 C   0  0  0  0  0  0  0  0  0  0  0  0
   25.5250   16.8830    7.9770 O   0  0  0  0  0  0  0  0  0  0  0  0
   24.6650   15.8330    8.1430 C   0  0  0  0  0  0  0  0  0  0  0  0
   24.1900   15.5260    9.3620 N   0  0  0  0  0  0  0  0  0  0  0  0
   24.3510   16.1560   10.6070 C   0  0  0  0  0  0  0  0  0  0  0  0
   23.3750   16.2050   11.6060 C   0  0  0  0  0  0  0  0  0  0  0  0
   23.5970   16.8870   12.8110 C   0  0  0  0  0  0  0  0  0  0  0  0
   24.8070   17.5500   13.0500 C   0  0  0  0  0  0  0  0  0  0  0  0
   25.0580   18.3180   14.3360 C   0  0  1  0  0  0  0  0  0  0  0  0
   26.2180   17.6860   15.1130 C   0  0  0  0  0  0  0  0  0  0  0  0
   26.4260   18.4270   16.4240 C   0  0  0  0  0  0  0  0  0  0  0  0
   26.6740   19.8950   16.1830 C   0  0  0  0  0  0  0  0  0  0  0  0
   27.2920   20.5970   16.9780 O   0  0  0  0  0  0  0  0  0  0  0  0
   26.1120   20.4320   15.0520 N   0  0  0  0  0  0  0  0  0  0  0  0
   25.3110   19.8100   14.1200 C   0  0  0  0  0  0  0  0  0  0  0  0
   24.8010   20.4730   13.2190 O   0  0  0  0  0  0  0  0  0  0  0  0
   25.7840   17.5210   12.0500 C   0  0  0  0  0  0  0  0  0  0  0  0
   25.5540   16.8380   10.8490 C   0  0  0  0  0  0  0  0  0  0  0  0
   24.4070   15.1750    7.0320 N   0  0  0  0  0  0  0  0  0  0  0  0
   25.1020   15.8440    6.0620 C   0  0  0  0  0  0  0  0  0  0  0  0
   23.7500   11.8390    4.5300 C   0  0  0  0  0  0  0  0  0  0  0  0
   24.0470   10.9190    5.4260 N   0  0  0  0  0  0  0  0  0  0  0  0
   24.7464    9.1845    8.6779 H   0  0  0  0  0  0  0  0  0  0  0  0
   23.8606    9.4192    7.1330 H   0  0  0  0  0  0  0  0  0  0  0  0
   25.4708    8.6230    7.1330 H   0  0  0  0  0  0  0  0  0  0  0  0
   25.3951   11.3386    8.3506 H   0  0  0  0  0  0  0  0  0  0  0  0
   26.5873   10.5816    7.2098 H   0  0  0  0  0  0  0  0  0  0  0  0
   25.8282   13.5647    6.4062 H   0  0  0  0  0  0  0  0  0  0  0  0
   26.1307   16.3907    2.8582 H   0  0  0  0  0  0  0  0  0  0  0  0
   27.3546   18.2407    3.9769 H   0  0  0  0  0  0  0  0  0  0  0  0
   27.1495   18.5956    6.4671 H   0  0  0  0  0  0  0  0  0  0  0  0
   23.6044   14.6791    9.3879 H   0  0  0  0  0  0  0  0  0  0  0  0
   22.4124   15.6979   11.4437 H   0  0  0  0  0  0  0  0  0  0  0  0
   22.8097   16.9014   13.5791 H   0  0  0  0  0  0  0  0  0  0  0  0
   24.1315   18.2471   14.9247 H   0  0  0  0  0  0  0  0  0  0  0  0
   25.9851   16.6316   15.3228 H   0  0  0  0  0  0  0  0  0  0  0  0
   27.1359   17.7508   14.5104 H   0  0  0  0  0  0  0  0  0  0  0  0
   25.5278   18.3119   17.0484 H   0  0  0  0  0  0  0  0  0  0  0  0
   27.3052   18.0021   16.9305 H   0  0  0  0  0  0  0  0  0  0  0  0
   26.3150   21.4267   14.8780 H   0  0  0  0  0  0  0  0  0  0  0  0
   26.7414   18.0391   12.2079 H   0  0  0  0  0  0  0  0  0  0  0  0
   26.3361   16.8359   10.0755 H   0  0  0  0  0  0  0  0  0  0  0  0
   23.0661   11.6893    3.6815 H   0  0  0  0  0  0  0  0  0  0  0  0
  1  2  1  0
  2  3  1  0
  3  4  2  0
  4  5  1  0
  5  6  1  0
  6  7  2  0
  6  8  2  0
  6  9  1  0
  9 10  2  0
 10 11  1  0
 11 12  2  0
 12 13  1  0
 13 14  1  0
 14 15  1  0
 15 16  1  0
 16 17  1  0
 17 18  2  0
 18 19  1  0
 19 20  2  0
 20 21  1  0
 21 22  1  0
 22 23  1  0
 23 24  1  0
 24 25  2  0
 24 26  1  0
 26 27  1  0
 27 28  2  0
 20 29  1  0
 29 30  2  0
 15 31  2  0
 31 32  1  0
  5 33  1  0
 33 34  2  0
 34  3  1  0
 32  9  1  0
 32 13  2  0
 30 17  1  0
 27 21  1  0
  1 35  1  0
  1 36  1  0
  1 37  1  0
  2 38  1  0
  2 39  1  0
  4 40  1  0
 10 41  1  0
 11 42  1  0
 12 43  1  0
 16 44  1  0
 18 45  1  0
 19 46  1  0
 21 47  1  1
 22 48  1  0
 22 49  1  0
 23 50  1  0
 23 51  1  0
 26 52  1  0
 29 53  1  0
 30 54  1  0
 33 55  1  0
M  END
>  <meeko>  (650) 
{"is_sidechain": [true], "free_energy": -11.82, "intermolecular_energy": 0.0, "internal_energy": -11.82, "cluster_size": 20, "cluster_id": 1, "rank_in_cluster": 1}

>  <_RMSD_MCS_to_ref>  (650) 
0.446741396111889

$$$$
ligand
     RDKit          3D

 58 62  0  0  0  0  0  0  0  0999 V2000
   24.8710    9.6160    7.7820 C   0  0  0  0  0  0  0  0  0  0  0  0
   25.4240   10.9650    7.3490 C   0  0  0  0  0  0  0  0  0  0  0  0
   26.8550   10.8820    6.9440 C   0  0  0  0  0  0  0  0  0  0  0  0
   27.9790   11.2760    7.6410 C   0  0  0  0  0  0  0  0  0  0  0  0
   29.0140   10.9960    6.7960 N   0  0  0  0  0  0  0  0  0  0  0  0
   30.6470   11.1230    7.1570 S   0  0  0  0  0  6  0  0  0  0  0  0
   31.0020    9.9050    7.8640 O   0  0  0  0  0  0  0  0  0  0  0  0
   31.2830   11.4930    5.9000 O   0  0  0  0  0  0  0  0  0  0  0  0
   30.7120   12.5030    8.2760 C   0  0  0  0  0  0  0  0  0  0  0  0
   31.9140   12.7930    8.8100 N   0  0  0  0  0  0  0  0  0  0  0  0
   31.9300   13.8470    9.6490 C   0  0  0  0  0  0  0  0  0  0  0  0
   30.8120   14.5850    9.9590 C   0  0  0  0  0  0  0  0  0  0  0  0
   29.6390   14.1800    9.3530 C   0  0  0  0  0  0  0  0  0  0  0  0
   28.3540   14.9000    9.6360 C   0  0  0  0  0  0  0  0  0  0  0  0
   28.3840   16.0350   10.0940 O   0  0  0  0  0  0  0  0  0  0  0  0
   27.2410   14.1410    9.3280 N   0  0  0  0  0  0  0  0  0  0  0  0
   25.8840   14.4810    9.4760 C   0  0  0  0  0  0  0  0  0  0  0  0
   24.8830   14.1000    8.5710 C   0  0  0  0  0  0  0  0  0  0  0  0
   23.5370   14.4800    8.7620 C   0  0  0  0  0  0  0  0  0  0  0  0
   23.1660   15.2470    9.8630 C   0  0  0  0  0  0  0  0  0  0  0  0
   24.1650   15.6060   10.7460 C   0  0  0  0  0  0  0  0  0  0  0  0
   25.5010   15.2400   10.5730 C   0  0  0  0  0  0  0  0  0  0  0  0
   26.3150   15.8120   11.6860 C   0  0  0  0  0  0  0  0  0  0  0  0
   25.3170   16.4280   12.5470 N   0  0  0  0  0  0  0  0  0  0  0  0
   25.7050   17.3030   13.6490 C   0  0  2  0  0  0  0  0  0  0  0  0
   24.5440   17.6960   14.5620 C   0  0  0  0  0  0  0  0  0  0  0  0
   25.0700   18.5510   15.7050 C   0  0  0  0  0  0  0  0  0  0  0  0
   25.7950   19.7710   15.1860 C   0  0  0  0  0  0  0  0  0  0  0  0
   25.9310   20.7870   15.8610 O   0  0  0  0  0  0  0  0  0  0  0  0
   26.3760   19.6630   13.9480 N   0  0  0  0  0  0  0  0  0  0  0  0
   26.4330   18.5540   13.1340 C   0  0  0  0  0  0  0  0  0  0  0  0
   27.1210   18.5670   12.1140 O   0  0  0  0  0  0  0  0  0  0  0  0
   24.0570   16.4080   11.9690 C   0  0  0  0  0  0  0  0  0  0  0  0
   23.0400   16.9510   12.3530 O   0  0  0  0  0  0  0  0  0  0  0  0
   29.5460   13.1330    8.4970 N   0  0  0  0  0  0  0  0  0  0  0  0
   28.5230   10.4160    5.6700 C   0  0  0  0  0  0  0  0  0  0  0  0
   27.2090   10.3430    5.7250 N   0  0  0  0  0  0  0  0  0  0  0  0
   24.8497    9.5640    8.8806 H   0  0  0  0  0  0  0  0  0  0  0  0
   23.8507    9.4948    7.3893 H   0  0  0  0  0  0  0  0  0  0  0  0
   25.5127    8.8135    7.3893 H   0  0  0  0  0  0  0  0  0  0  0  0
   24.8349   11.3321    6.4956 H   0  0  0  0  0  0  0  0  0  0  0  0
   25.3548   11.6498    8.2070 H   0  0  0  0  0  0  0  0  0  0  0  0
   28.0295   11.7156    8.6481 H   0  0  0  0  0  0  0  0  0  0  0  0
   32.8872   14.1320   10.1100 H   0  0  0  0  0  0  0  0  0  0  0  0
   30.8495   15.4433   10.6459 H   0  0  0  0  0  0  0  0  0  0  0  0
   27.4293   13.2056    8.9400 H   0  0  0  0  0  0  0  0  0  0  0  0
   25.1521   13.4926    7.6943 H   0  0  0  0  0  0  0  0  0  0  0  0
   22.7740   14.1671    8.0340 H   0  0  0  0  0  0  0  0  0  0  0  0
   22.1218   15.5539   10.0226 H   0  0  0  0  0  0  0  0  0  0  0  0
   26.8628   15.0217   12.2202 H   0  0  0  0  0  0  0  0  0  0  0  0
   27.0813   16.5208   11.3391 H   0  0  0  0  0  0  0  0  0  0  0  0
   26.3965   16.7113   14.2668 H   0  0  0  0  0  0  0  0  0  0  0  0
   23.8016   18.2684   13.9865 H   0  0  0  0  0  0  0  0  0  0  0  0
   24.0711   16.7894   14.9675 H   0  0  0  0  0  0  0  0  0  0  0  0
   24.2243   18.8748   16.3295 H   0  0  0  0  0  0  0  0  0  0  0  0
   25.7782   17.9489   16.2931 H   0  0  0  0  0  0  0  0  0  0  0  0
   26.8242   20.5155   13.5829 H   0  0  0  0  0  0  0  0  0  0  0  0
   29.1366   10.0577    4.8303 H   0  0  0  0  0  0  0  0  0  0  0  0
  1  2  1  0
  2  3  1  0
  3  4  2  0
  4  5  1  0
  5  6  1  0
  6  7  2  0
  6  8  2  0
  6  9  1  0
  9 10  2  0
 10 11  1  0
 11 12  2  0
 12 13  1  0
 13 14  1  0
 14 15  2  0
 14 16  1  0
 16 17  1  0
 17 18  2  0
 18 19  1  0
 19 20  2  0
 20 21  1  0
 21 22  2  0
 22 23  1  0
 23 24  1  0
 24 25  1  0
 25 26  1  0
 26 27  1  0
 27 28  1  0
 28 29  2  0
 28 30  1  0
 30 31  1  0
 31 32  2  0
 24 33  1  0
 33 34  2  0
 13 35  2  0
  5 36  1  0
 36 37  2  0
 37  3  1  0
 35  9  1  0
 22 17  1  0
 31 25  1  0
 33 21  1  0
  1 38  1  0
  1 39  1  0
  1 40  1  0
  2 41  1  0
  2 42  1  0
  4 43  1  0
 11 44  1  0
 12 45  1  0
 16 46  1  0
 18 47  1  0
 19 48  1  0
 20 49  1  0
 23 50  1  0
 23 51  1  0
 25 52  1  1
 26 53  1  0
 26 54  1  0
 27 55  1  0
 27 56  1  0
 30 57  1  0
 36 58  1  0
M  END
>  <meeko>  (651) 
{"is_sidechain": [true], "free_energy": -11.82, "intermolecular_energy": 0.0, "internal_energy": -11.82, "cluster_size": 12, "cluster_id": 1, "rank_in_cluster": 1}

>  <_RMSD_MCS_to_ref>  (651) 
1.7207407481146662

$$$$
ligand
     RDKit          3D

 59 64  0  0  0  0  0  0  0  0999 V2000
   24.8710    9.6160    7.7820 C   0  0  0  0  0  0  0  0  0  0  0  0
   25.4240   10.9650    7.3490 C   0  0  0  0  0  0  0  0  0  0  0  0
   26.8230   10.8640    6.8500 C   0  0  0  0  0  0  0  0  0  0  0  0
   27.9830   11.3650    7.4080 C   0  0  0  0  0  0  0  0  0  0  0  0
   28.9690   10.9560    6.5560 N   0  0  0  0  0  0  0  0  0  0  0  0
   30.5720   11.4730    6.5850 S   0  0  0  0  0  6  0  0  0  0  0  0
   31.0180   11.2200    7.9430 O   0  0  0  0  0  0  0  0  0  0  0  0
   31.1940   10.8180    5.4480 O   0  0  0  0  0  0  0  0  0  0  0  0
   30.5310   13.0810    6.3260 O   0  0  0  0  0  0  0  0  0  0  0  0
   29.3560   13.7910    6.2550 C   0  0  0  0  0  0  0  0  0  0  0  0
   28.5850   14.1770    7.3580 C   0  0  0  0  0  0  0  0  0  0  0  0
   27.3840   14.9080    7.2060 C   0  0  0  0  0  0  0  0  0  0  0  0
   26.5770   15.3250    8.3560 C   0  0  0  0  0  0  0  0  0  0  0  0
   25.2240   14.9160    8.4740 C   0  0  0  0  0  0  0  0  0  0  0  0
   24.4380   15.3030    9.5630 C   0  0  0  0  0  0  0  0  0  0  0  0
   25.0330   16.0930   10.5250 C   0  0  0  0  0  0  0  0  0  0  0  0
   26.3590   16.5080   10.4420 C   0  0  0  0  0  0  0  0  0  0  0  0
   27.1420   16.1320    9.3640 C   0  0  0  0  0  0  0  0  0  0  0  0
   26.6970   17.3670   11.6130 C   0  0  0  0  0  0  0  0  0  0  0  0
   25.4830   17.3030   12.4180 N   0  0  0  0  0  0  0  0  0  0  0  0
   25.2890   18.1850   13.5650 C   0  0  2  0  0  0  0  0  0  0  0  0
   25.8980   19.5740   13.3840 C   0  0  0  0  0  0  0  0  0  0  0  0
   25.5840   20.4250   14.6050 C   0  0  0  0  0  0  0  0  0  0  0  0
   26.0820   19.7680   15.8720 C   0  0  0  0  0  0  0  0  0  0  0  0
   26.3240   20.4100   16.8900 O   0  0  0  0  0  0  0  0  0  0  0  0
   26.1730   18.3990   15.8630 N   0  0  0  0  0  0  0  0  0  0  0  0
   25.8030   17.5340   14.8580 C   0  0  0  0  0  0  0  0  0  0  0  0
   25.7960   16.3200   15.0560 O   0  0  0  0  0  0  0  0  0  0  0  0
   24.4580   16.6450   11.7570 C   0  0  0  0  0  0  0  0  0  0  0  0
   23.2910   16.5370   12.0820 O   0  0  0  0  0  0  0  0  0  0  0  0
   26.9830   15.2400    5.8960 C   0  0  0  0  0  0  0  0  0  0  0  0
   25.9270   15.9400    5.2690 C   0  0  0  0  0  0  0  0  0  0  0  0
   26.0400   15.9500    3.9380 N   0  0  0  0  0  0  0  0  0  0  0  0
   27.2050   15.2490    3.6640 O   0  0  0  0  0  0  0  0  0  0  0  0
   27.7670   14.8320    4.8320 C   0  0  0  0  0  0  0  0  0  0  0  0
   28.9500   14.1090    4.9550 C   0  0  0  0  0  0  0  0  0  0  0  0
   28.4050   10.3140    5.5000 C   0  0  0  0  0  0  0  0  0  0  0  0
   27.1020   10.2190    5.6620 N   0  0  0  0  0  0  0  0  0  0  0  0
   24.8497    9.5640    8.8806 H   0  0  0  0  0  0  0  0  0  0  0  0
   23.8507    9.4948    7.3893 H   0  0  0  0  0  0  0  0  0  0  0  0
   25.5127    8.8135    7.3893 H   0  0  0  0  0  0  0  0  0  0  0  0
   24.7892   11.3670    6.5456 H   0  0  0  0  0  0  0  0  0  0  0  0
   25.4251   11.6277    8.2270 H   0  0  0  0  0  0  0  0  0  0  0  0
   28.0886   11.9580    8.3284 H   0  0  0  0  0  0  0  0  0  0  0  0
   28.9221   13.9046    8.3690 H   0  0  0  0  0  0  0  0  0  0  0  0
   24.7838   14.2805    7.6915 H   0  0  0  0  0  0  0  0  0  0  0  0
   23.3870   14.9902    9.6496 H   0  0  0  0  0  0  0  0  0  0  0  0
   28.1902   16.4584    9.2951 H   0  0  0  0  0  0  0  0  0  0  0  0
   27.5600   16.9650   12.1640 H   0  0  0  0  0  0  0  0  0  0  0  0
   26.9828   18.3921   11.3346 H   0  0  0  0  0  0  0  0  0  0  0  0
   24.2019   18.3338   13.6434 H   0  0  0  0  0  0  0  0  0  0  0  0
   26.9883   19.4848   13.2691 H   0  0  0  0  0  0  0  0  0  0  0  0
   25.4737   20.0477   12.4864 H   0  0  0  0  0  0  0  0  0  0  0  0
   26.0707   21.4052   14.4939 H   0  0  0  0  0  0  0  0  0  0  0  0
   24.4925   20.5399   14.6781 H   0  0  0  0  0  0  0  0  0  0  0  0
   26.5658   17.9660   16.7110 H   0  0  0  0  0  0  0  0  0  0  0  0
   25.1039   16.4227    5.8162 H   0  0  0  0  0  0  0  0  0  0  0  0
   29.5353   13.8035    4.0752 H   0  0  0  0  0  0  0  0  0  0  0  0
   28.9591    9.9279    4.6317 H   0  0  0  0  0  0  0  0  0  0  0  0
  1  2  1  0
  2  3  1  0
  3  4  2  0
  4  5  1  0
  5  6  1  0
  6  7  2  0
  6  8  2  0
  6  9  1  0
  9 10  1  0
 10 11  2  0
 11 12  1  0
 12 13  1  0
 13 14  2  0
 14 15  1  0
 15 16  2  0
 16 17  1  0
 17 18  2  0
 17 19  1  0
 19 20  1  0
 20 21  1  0
 21 22  1  0
 22 23  1  0
 23 24  1  0
 24 25  2  0
 24 26  1  0
 26 27  1  0
 27 28  2  0
 20 29  1  0
 29 30  2  0
 12 31  2  0
 31 32  1  0
 32 33  2  0
 33 34  1  0
 34 35  1  0
 35 36  2  0
  5 37  1  0
 37 38  2  0
 38  3  1  0
 36 10  1  0
 18 13  1  0
 27 21  1  0
 35 31  1  0
 29 16  1  0
  1 39  1  0
  1 40  1  0
  1 41  1  0
  2 42  1  0
  2 43  1  0
  4 44  1  0
 11 45  1  0
 14 46  1  0
 15 47  1  0
 18 48  1  0
 19 49  1  0
 19 50  1  0
 21 51  1  1
 22 52  1  0
 22 53  1  0
 23 54  1  0
 23 55  1  0
 26 56  1  0
 32 57  1  0
 36 58  1  0
 37 59  1  0
M  END
>  <meeko>  (652) 
{"is_sidechain": [true], "free_energy": -11.82, "intermolecular_energy": 0.0, "internal_energy": -11.82, "cluster_size": 20, "cluster_id": 1, "rank_in_cluster": 1}

>  <_RMSD_MCS_to_ref>  (652) 
1.9718279123162534

$$$$
ligand
     RDKit          3D

 62 66  0  0  0  0  0  0  0  0999 V2000
   24.8710    9.6160    7.7820 C   0  0  0  0  0  0  0  0  0  0  0  0
   25.4240   10.9650    7.3490 C   0  0  0  0  0  0  0  0  0  0  0  0
   24.8640   11.4100    6.0450 C   0  0  0  0  0  0  0  0  0  0  0  0
   24.9610   12.6450    5.4330 C   0  0  0  0  0  0  0  0  0  0  0  0
   24.2840   12.4900    4.2580 N   0  0  0  0  0  0  0  0  0  0  0  0
   23.9030   13.7190    3.1770 S   0  0  0  0  0  6  0  0  0  0  0  0
   23.8360   13.0790    1.8730 O   0  0  0  0  0  0  0  0  0  0  0  0
   22.7700   14.4230    3.7460 O   0  0  0  0  0  0  0  0  0  0  0  0
   25.3270   14.7780    3.2330 C   0  0  0  0  0  0  0  0  0  0  0  0
   26.0600   14.9170    2.0410 C   0  0  0  0  0  0  0  0  0  0  0  0
   27.1610   15.7660    1.9960 C   0  0  0  0  0  0  0  0  0  0  0  0
   27.5310   16.4680    3.1370 C   0  0  0  0  0  0  0  0  0  0  0  0
   26.8100   16.3170    4.3280 C   0  0  0  0  0  0  0  0  0  0  0  0
   25.6980   15.4700    4.4020 C   0  0  0  0  0  0  0  0  0  0  0  0
   24.9900   15.2800    5.6150 N   0  0  0  0  0  0  0  0  0  0  0  0
   25.2090   15.8840    6.8450 C   0  0  0  0  0  0  0  0  0  0  0  0
   26.0080   16.7880    7.0460 O   0  0  0  0  0  0  0  0  0  0  0  0
   24.3750   15.3230    7.8020 N   0  0  0  0  0  0  0  0  0  0  0  0
   24.2210   15.7190    9.1480 C   0  0  0  0  0  0  0  0  0  0  0  0
   23.1100   15.1860    9.8430 C   0  0  0  0  0  0  0  0  0  0  0  0
   22.8600   15.5200   11.1790 C   0  0  0  0  0  0  0  0  0  0  0  0
   23.7400   16.3900   11.7880 C   0  0  0  0  0  0  0  0  0  0  0  0
   24.8340   16.9340   11.1230 C   0  0  0  0  0  0  0  0  0  0  0  0
   25.0860   16.6100    9.7980 C   0  0  0  0  0  0  0  0  0  0  0  0
   25.5740   17.8570   12.0300 C   0  0  0  0  0  0  0  0  0  0  0  0
   24.8680   17.6950   13.2950 N   0  0  0  0  0  0  0  0  0  0  0  0
   25.1270   18.5800   14.4250 C   0  0  2  0  0  0  0  0  0  0  0  0
   25.7860   19.9020   14.0330 C   0  0  0  0  0  0  0  0  0  0  0  0
   25.9530   20.7680   15.2710 C   0  0  0  0  0  0  0  0  0  0  0  0
   26.7510   20.0540   16.3360 C   0  0  0  0  0  0  0  0  0  0  0  0
   27.3620   20.6580   17.2130 O   0  0  0  0  0  0  0  0  0  0  0  0
   26.6950   18.6820   16.3340 N   0  0  0  0  0  0  0  0  0  0  0  0
   25.9500   17.8680   15.5110 C   0  0  0  0  0  0  0  0  0  0  0  0
   25.8880   16.6590   15.7280 O   0  0  0  0  0  0  0  0  0  0  0  0
   23.7290   16.9160   13.1560 C   0  0  0  0  0  0  0  0  0  0  0  0
   22.8550   16.6970   13.9720 O   0  0  0  0  0  0  0  0  0  0  0  0
   23.7710   11.2350    4.2000 C   0  0  0  0  0  0  0  0  0  0  0  0
   24.1160   10.5460    5.2680 N   0  0  0  0  0  0  0  0  0  0  0  0
   24.8497    9.5640    8.8806 H   0  0  0  0  0  0  0  0  0  0  0  0
   23.8507    9.4948    7.3893 H   0  0  0  0  0  0  0  0  0  0  0  0
   25.5127    8.8135    7.3893 H   0  0  0  0  0  0  0  0  0  0  0  0
   25.1736   11.7130    8.1157 H   0  0  0  0  0  0  0  0  0  0  0  0
   26.5127   10.8613    7.2309 H   0  0  0  0  0  0  0  0  0  0  0  0
   25.4678   13.5467    5.8071 H   0  0  0  0  0  0  0  0  0  0  0  0
   25.7626   14.3542    1.1439 H   0  0  0  0  0  0  0  0  0  0  0  0
   27.7345   15.8809    1.0644 H   0  0  0  0  0  0  0  0  0  0  0  0
   28.3960   17.1468    3.1043 H   0  0  0  0  0  0  0  0  0  0  0  0
   27.1236   16.8748    5.2227 H   0  0  0  0  0  0  0  0  0  0  0  0
   24.2119   14.6061    5.5789 H   0  0  0  0  0  0  0  0  0  0  0  0
   23.8016   14.5247    7.4941 H   0  0  0  0  0  0  0  0  0  0  0  0
   22.4294   14.4956    9.3233 H   0  0  0  0  0  0  0  0  0  0  0  0
   21.9971   15.1056   11.7210 H   0  0  0  0  0  0  0  0  0  0  0  0
   25.9471   17.0435    9.2682 H   0  0  0  0  0  0  0  0  0  0  0  0
   26.6291   17.5603   12.1235 H   0  0  0  0  0  0  0  0  0  0  0  0
   25.5964   18.8969   11.6720 H   0  0  0  0  0  0  0  0  0  0  0  0
   24.1380   18.8368   14.8323 H   0  0  0  0  0  0  0  0  0  0  0  0
   26.7722   19.7030   13.5883 H   0  0  0  0  0  0  0  0  0  0  0  0
   25.1539   20.4253   13.3004 H   0  0  0  0  0  0  0  0  0  0  0  0
   26.4759   21.6947   14.9922 H   0  0  0  0  0  0  0  0  0  0  0  0
   24.9549   20.9913   15.6759 H   0  0  0  0  0  0  0  0  0  0  0  0
   27.2815   18.2040   17.0329 H   0  0  0  0  0  0  0  0  0  0  0  0
   23.1535   10.8475    3.3763 H   0  0  0  0  0  0  0  0  0  0  0  0
  1  2  1  0
  2  3  1  0
  3  4  2  0
  4  5  1  0
  5  6  1  0
  6  7  2  0
  6  8  2  0
  6  9  1  0
  9 10  2  0
 10 11  1  0
 11 12  2  0
 12 13  1  0
 13 14  2  0
 14 15  1  0
 15 16  1  0
 16 17  2  0
 16 18  1  0
 18 19  1  0
 19 20  2  0
 20 21  1  0
 21 22  2  0
 22 23  1  0
 23 24  2  0
 23 25  1  0
 25 26  1  0
 26 27  1  0
 27 28  1  0
 28 29  1  0
 29 30  1  0
 30 31  2  0
 30 32  1  0
 32 33  1  0
 33 34  2  0
 26 35  1  0
 35 36  2  0
  5 37  1  0
 37 38  2  0
 38  3  1  0
 14  9  1  0
 24 19  1  0
 33 27  1  0
 35 22  1  0
  1 39  1  0
  1 40  1  0
  1 41  1  0
  2 42  1  0
  2 43  1  0
  4 44  1  0
 10 45  1  0
 11 46  1  0
 12 47  1  0
 13 48  1  0
 15 49  1  0
 18 50  1  0
 20 51  1  0
 21 52  1  0
 24 53  1  0
 25 54  1  0
 25 55  1  0
 27 56  1  1
 28 57  1  0
 28 58  1  0
 29 59  1  0
 29 60  1  0
 32 61  1  0
 37 62  1  0
M  END
>  <meeko>  (653) 
{"is_sidechain": [true], "free_energy": -11.82, "intermolecular_energy": 0.0, "internal_energy": -11.82, "cluster_size": 5, "cluster_id": 1, "rank_in_cluster": 1}

>  <_RMSD_MCS_to_ref>  (653) 
1.6731783792796542

$$$$
ligand
     RDKit          3D

 57 61  0  0  0  0  0  0  0  0999 V2000
   24.8540    9.4020    7.6050 C   0  0  0  0  0  0  0  0  0  0  0  0
   25.5230   10.7550    7.4270 C   0  0  0  0  0  0  0  0  0  0  0  0
   25.4360   11.2420    6.0230 C   0  0  0  0  0  0  0  0  0  0  0  0
   26.2720   12.1170    5.3570 C   0  0  0  0  0  0  0  0  0  0  0  0
   25.7140   12.2360    4.1160 N   0  0  0  0  0  0  0  0  0  0  0  0
   26.1300   13.3830    2.9480 S   0  0  0  0  0  6  0  0  0  0  0  0
   27.5700   13.2600    2.8060 O   0  0  0  0  0  0  0  0  0  0  0  0
   25.2460   13.0930    1.8320 O   0  0  0  0  0  0  0  0  0  0  0  0
   25.7770   14.8880    3.4930 O   0  0  0  0  0  0  0  0  0  0  0  0
   26.4160   15.3740    4.6010 C   0  0  0  0  0  0  0  0  0  0  0  0
   27.7090   15.8730    4.4330 C   0  0  0  0  0  0  0  0  0  0  0  0
   28.3860   16.4230    5.5170 C   0  0  0  0  0  0  0  0  0  0  0  0
   27.7840   16.4560    6.7760 C   0  0  0  0  0  0  0  0  0  0  0  0
   26.5040   15.9180    6.9660 C   0  0  0  0  0  0  0  0  0  0  0  0
   25.8170   15.3380    5.8670 C   0  0  0  0  0  0  0  0  0  0  0  0
   24.4210   14.7630    6.0750 C   0  0  0  0  0  0  0  0  0  0  0  0
   24.1890   14.1820    7.4820 C   0  0  0  0  0  0  0  0  0  0  0  0
   24.7260   15.1010    8.5340 C   0  0  0  0  0  0  0  0  0  0  0  0
   24.2460   15.2790    9.8630 C   0  0  0  0  0  0  0  0  0  0  0  0
   24.9880   16.2060   10.5740 C   0  0  0  0  0  0  0  0  0  0  0  0
   24.7660   16.6230   11.9510 C   0  0  0  0  0  0  0  0  0  0  0  0
   23.8590   16.1720   12.6490 O   0  0  0  0  0  0  0  0  0  0  0  0
   25.6290   17.5770   12.4430 N   0  0  0  0  0  0  0  0  0  0  0  0
   25.4330   18.2030   13.7400 C   0  0  1  0  0  0  0  0  0  0  0  0
   26.2640   17.5390   14.8320 C   0  0  0  0  0  0  0  0  0  0  0  0
   26.0400   18.2620   16.1510 C   0  0  0  0  0  0  0  0  0  0  0  0
   26.3480   19.7360   16.0280 C   0  0  0  0  0  0  0  0  0  0  0  0
   26.8210   20.3900   16.9510 O   0  0  0  0  0  0  0  0  0  0  0  0
   26.0410   20.3280   14.8290 N   0  0  0  0  0  0  0  0  0  0  0  0
   25.8340   19.6780   13.6370 C   0  0  0  0  0  0  0  0  0  0  0  0
   25.9560   20.2650   12.5620 O   0  0  0  0  0  0  0  0  0  0  0  0
   26.2580   16.8440    9.6130 S   0  0  0  0  0  0  0  0  0  0  0  0
   25.8270   15.8940    8.2700 C   0  0  0  0  0  0  0  0  0  0  0  0
   24.5910   11.4730    4.0600 C   0  0  0  0  0  0  0  0  0  0  0  0
   24.3980   10.8460    5.2010 N   0  0  0  0  0  0  0  0  0  0  0  0
   24.7464    9.1845    8.6779 H   0  0  0  0  0  0  0  0  0  0  0  0
   23.8606    9.4192    7.1330 H   0  0  0  0  0  0  0  0  0  0  0  0
   25.4708    8.6230    7.1330 H   0  0  0  0  0  0  0  0  0  0  0  0
   25.0298   11.4841    8.0866 H   0  0  0  0  0  0  0  0  0  0  0  0
   26.5873   10.6429    7.6814 H   0  0  0  0  0  0  0  0  0  0  0  0
   27.1801   12.6064    5.7390 H   0  0  0  0  0  0  0  0  0  0  0  0
   28.1917   15.8314    3.4454 H   0  0  0  0  0  0  0  0  0  0  0  0
   29.3978   16.8327    5.3816 H   0  0  0  0  0  0  0  0  0  0  0  0
   28.3181   16.9075    7.6250 H   0  0  0  0  0  0  0  0  0  0  0  0
   23.6873   15.5650    5.9061 H   0  0  0  0  0  0  0  0  0  0  0  0
   24.3088   13.9315    5.3636 H   0  0  0  0  0  0  0  0  0  0  0  0
   23.1094   14.0440    7.6412 H   0  0  0  0  0  0  0  0  0  0  0  0
   24.7143   13.2183    7.5555 H   0  0  0  0  0  0  0  0  0  0  0  0
   23.3818   14.7398   10.2781 H   0  0  0  0  0  0  0  0  0  0  0  0
   26.4402   17.8561   11.8729 H   0  0  0  0  0  0  0  0  0  0  0  0
   24.3732   18.0944   14.0138 H   0  0  0  0  0  0  0  0  0  0  0  0
   25.9605   16.4867   14.9347 H   0  0  0  0  0  0  0  0  0  0  0  0
   27.3294   17.5892   14.5631 H   0  0  0  0  0  0  0  0  0  0  0  0
   24.9894   18.1394   16.4530 H   0  0  0  0  0  0  0  0  0  0  0  0
   26.7144   17.8279   16.9039 H   0  0  0  0  0  0  0  0  0  0  0  0
   25.9581   21.3546   14.8222 H   0  0  0  0  0  0  0  0  0  0  0  0
   23.9337   11.3907    3.1819 H   0  0  0  0  0  0  0  0  0  0  0  0
  1  2  1  0
  2  3  1  0
  3  4  2  0
  4  5  1  0
  5  6  1  0
  6  7  2  0
  6  8  2  0
  6  9  1  0
  9 10  1  0
 10 11  2  0
 11 12  1  0
 12 13  2  0
 13 14  1  0
 14 15  2  0
 15 16  1  0
 16 17  1  0
 17 18  1  0
 18 19  1  0
 19 20  2  0
 20 21  1  0
 21 22  2  0
 21 23  1  0
 23 24  1  0
 24 25  1  0
 25 26  1  0
 26 27  1  0
 27 28  2  0
 27 29  1  0
 29 30  1  0
 30 31  2  0
 20 32  1  0
 32 33  1  0
  5 34  1  0
 34 35  2  0
 35  3  1  0
 15 10  1  0
 33 18  2  0
 33 14  1  0
 30 24  1  0
  1 36  1  0
  1 37  1  0
  1 38  1  0
  2 39  1  0
  2 40  1  0
  4 41  1  0
 11 42  1  0
 12 43  1  0
 13 44  1  0
 16 45  1  0
 16 46  1  0
 17 47  1  0
 17 48  1  0
 19 49  1  0
 23 50  1  0
 24 51  1  1
 25 52  1  0
 25 53  1  0
 26 54  1  0
 26 55  1  0
 29 56  1  0
 34 57  1  0
M  END
>  <meeko>  (654) 
{"is_sidechain": [true], "free_energy": -11.81, "intermolecular_energy": 0.0, "internal_energy": -11.81, "cluster_size": 20, "cluster_id": 1, "rank_in_cluster": 1}

>  <_RMSD_MCS_to_ref>  (654) 
1.057782901481521

$$$$
ligand
     RDKit          3D

 64 68  0  0  0  0  0  0  0  0999 V2000
   24.8540    9.4020    7.6050 C   0  0  0  0  0  0  0  0  0  0  0  0
   25.5230   10.7550    7.4270 C   0  0  0  0  0  0  0  0  0  0  0  0
   27.0040   10.6720    7.5480 C   0  0  0  0  0  0  0  0  0  0  0  0
   27.9370   11.6900    7.5170 C   0  0  0  0  0  0  0  0  0  0  0  0
   29.1330   11.0540    7.6970 N   0  0  0  0  0  0  0  0  0  0  0  0
   30.6530   11.7650    7.5790 S   0  0  0  0  0  6  0  0  0  0  0  0
   31.0390   12.0910    8.9380 O   0  0  0  0  0  0  0  0  0  0  0  0
   31.4400   10.8850    6.7380 O   0  0  0  0  0  0  0  0  0  0  0  0
   30.3430   13.2700    6.6980 C   0  0  0  0  0  0  0  0  0  0  0  0
   31.2270   13.6930    5.7080 C   0  0  0  0  0  0  0  0  0  0  0  0
   30.9850   14.8960    5.0420 C   0  0  0  0  0  0  0  0  0  0  0  0
   29.8590   15.6770    5.3410 C   0  0  0  0  0  0  0  0  0  0  0  0
   28.9980   15.2660    6.3710 C   0  0  0  0  0  0  0  0  0  0  0  0
   29.2160   14.0310    7.0110 C   0  0  0  0  0  0  0  0  0  0  0  0
   27.8310   16.1500    6.8010 C   0  0  1  0  0  0  0  0  0  0  0  0
   27.7370   16.2660    8.3280 C   0  0  0  0  0  0  0  0  0  0  0  0
   28.7200   16.0430    9.0280 O   0  0  0  0  0  0  0  0  0  0  0  0
   26.4840   16.6610    8.7710 N   0  0  0  0  0  0  0  0  0  0  0  0
   26.1440   17.1630   10.0410 C   0  0  0  0  0  0  0  0  0  0  0  0
   26.8500   18.2860   10.4850 C   0  0  0  0  0  0  0  0  0  0  0  0
   26.6560   18.7890   11.7740 C   0  0  0  0  0  0  0  0  0  0  0  0
   25.7390   18.1840   12.6430 C   0  0  0  0  0  0  0  0  0  0  0  0
   25.5880   18.6390   14.0840 C   0  0  1  0  0  0  0  0  0  0  0  0
   26.6770   17.9870   14.9440 C   0  0  0  0  0  0  0  0  0  0  0  0
   26.5060   18.3950   16.3970 C   0  0  0  0  0  0  0  0  0  0  0  0
   26.5350   19.8940   16.5430 C   0  0  0  0  0  0  0  0  0  0  0  0
   26.8830   20.4490   17.5810 O   0  0  0  0  0  0  0  0  0  0  0  0
   26.0860   20.6210   15.4690 N   0  0  0  0  0  0  0  0  0  0  0  0
   25.6080   20.1570   14.2640 C   0  0  0  0  0  0  0  0  0  0  0  0
   25.1820   20.9570   13.4340 O   0  0  0  0  0  0  0  0  0  0  0  0
   25.0110   17.0790   12.1810 C   0  0  0  0  0  0  0  0  0  0  0  0
   25.2100   16.5740   10.8910 C   0  0  0  0  0  0  0  0  0  0  0  0
   27.8890   17.5550    6.1910 C   0  0  0  0  0  0  0  0  0  0  0  0
   28.3560   17.4750    4.7500 C   0  0  0  0  0  0  0  0  0  0  0  0
   29.7040   16.9200    4.7090 N   0  0  0  0  0  0  0  0  0  0  0  0
   28.9160    9.7140    7.7670 C   0  0  0  0  0  0  0  0  0  0  0  0
   27.6270    9.4510    7.7030 N   0  0  0  0  0  0  0  0  0  0  0  0
   24.7464    9.1845    8.6779 H   0  0  0  0  0  0  0  0  0  0  0  0
   23.8606    9.4192    7.1330 H   0  0  0  0  0  0  0  0  0  0  0  0
   25.4708    8.6230    7.1330 H   0  0  0  0  0  0  0  0  0  0  0  0
   25.2707   11.1462    6.4304 H   0  0  0  0  0  0  0  0  0  0  0  0
   25.1566   11.4194    8.2234 H   0  0  0  0  0  0  0  0  0  0  0  0
   27.7582   12.7666    7.3790 H   0  0  0  0  0  0  0  0  0  0  0  0
   32.1075   13.0849    5.4533 H   0  0  0  0  0  0  0  0  0  0  0  0
   31.6897   15.2372    4.2693 H   0  0  0  0  0  0  0  0  0  0  0  0
   28.4969   13.6655    7.7588 H   0  0  0  0  0  0  0  0  0  0  0  0
   26.9302   15.6483    6.4177 H   0  0  0  0  0  0  0  0  0  0  0  0
   25.7134   16.5774    8.0926 H   0  0  0  0  0  0  0  0  0  0  0  0
   27.5664   18.7789    9.8114 H   0  0  0  0  0  0  0  0  0  0  0  0
   27.2278   19.6669   12.1090 H   0  0  0  0  0  0  0  0  0  0  0  0
   24.5896   18.3137   14.4118 H   0  0  0  0  0  0  0  0  0  0  0  0
   26.5998   16.8928   14.8615 H   0  0  0  0  0  0  0  0  0  0  0  0
   27.6639   18.3194   14.5896 H   0  0  0  0  0  0  0  0  0  0  0  0
   25.5415   18.0161   16.7661 H   0  0  0  0  0  0  0  0  0  0  0  0
   27.3356   17.9696   16.9808 H   0  0  0  0  0  0  0  0  0  0  0  0
   26.1096   21.6449   15.5784 H   0  0  0  0  0  0  0  0  0  0  0  0
   24.2725   16.6017   12.8419 H   0  0  0  0  0  0  0  0  0  0  0  0
   24.6262   15.7078   10.5463 H   0  0  0  0  0  0  0  0  0  0  0  0
   26.8875   18.0087    6.2249 H   0  0  0  0  0  0  0  0  0  0  0  0
   28.5963   18.1701    6.7666 H   0  0  0  0  0  0  0  0  0  0  0  0
   27.6747   16.8274    4.1786 H   0  0  0  0  0  0  0  0  0  0  0  0
   28.3592   18.4822    4.3078 H   0  0  0  0  0  0  0  0  0  0  0  0
   30.4868   17.4061    4.2487 H   0  0  0  0  0  0  0  0  0  0  0  0
   29.7065    8.9552    7.8636 H   0  0  0  0  0  0  0  0  0  0  0  0
  1  2  1  0
  2  3  1  0
  3  4  2  0
  4  5  1  0
  5  6  1  0
  6  7  2  0
  6  8  2  0
  6  9  1  0
  9 10  2  0
 10 11  1  0
 11 12  2  0
 12 13  1  0
 13 14  2  0
 13 15  1  0
 15 16  1  0
 16 17  2  0
 16 18  1  0
 18 19  1  0
 19 20  2  0
 20 21  1  0
 21 22  2  0
 22 23  1  0
 23 24  1  0
 24 25  1  0
 25 26  1  0
 26 27  2  0
 26 28  1  0
 28 29  1  0
 29 30  2  0
 22 31  1  0
 31 32  2  0
 15 33  1  0
 33 34  1  0
 34 35  1  0
  5 36  1  0
 36 37  2  0
 37  3  1  0
 14  9  1  0
 32 19  1  0
 35 12  1  0
 29 23  1  0
  1 38  1  0
  1 39  1  0
  1 40  1  0
  2 41  1  0
  2 42  1  0
  4 43  1  0
 10 44  1  0
 11 45  1  0
 14 46  1  0
 15 47  1  6
 18 48  1  0
 20 49  1  0
 21 50  1  0
 23 51  1  1
 24 52  1  0
 24 53  1  0
 25 54  1  0
 25 55  1  0
 28 56  1  0
 31 57  1  0
 32 58  1  0
 33 59  1  0
 33 60  1  0
 34 61  1  0
 34 62  1  0
 35 63  1  0
 36 64  1  0
M  END
>  <meeko>  (655) 
{"is_sidechain": [true], "free_energy": -11.81, "intermolecular_energy": 0.0, "internal_energy": -11.81, "cluster_size": 18, "cluster_id": 1, "rank_in_cluster": 1}

>  <_RMSD_MCS_to_ref>  (655) 
0.7317614023710179

$$$$
ligand
     RDKit          3D

 61 65  0  0  0  0  0  0  0  0999 V2000
   24.8540    9.4020    7.6050 C   0  0  0  0  0  0  0  0  0  0  0  0
   25.5230   10.7550    7.4270 C   0  0  0  0  0  0  0  0  0  0  0  0
   26.9860   10.6310    7.1820 C   0  0  0  0  0  0  0  0  0  0  0  0
   27.7230   11.0530    6.0930 C   0  0  0  0  0  0  0  0  0  0  0  0
   29.0020   10.6720    6.3870 N   0  0  0  0  0  0  0  0  0  0  0  0
   30.3890   11.1430    5.5490 S   0  0  0  0  0  6  0  0  0  0  0  0
   31.2730   11.6350    6.5950 O   0  0  0  0  0  0  0  0  0  0  0  0
   30.7520    9.9630    4.7840 O   0  0  0  0  0  0  0  0  0  0  0  0
   30.0310   12.4310    4.4590 C   0  0  0  0  0  0  0  0  0  0  0  0
   30.2940   12.3420    3.1480 C   0  0  0  0  0  0  0  0  0  0  0  0
   29.9360   13.4530    2.2430 C   0  0  0  0  0  0  0  0  0  0  0  0
   30.1830   13.3810    1.0460 O   0  0  0  0  0  0  0  0  0  0  0  0
   29.3210   14.5320    2.8040 N   0  0  0  0  0  0  0  0  0  0  0  0
   29.0430   14.6580    4.1700 C   0  0  0  0  0  0  0  0  0  0  0  0
   28.4270   15.8310    4.6140 C   0  0  0  0  0  0  0  0  0  0  0  0
   28.1470   15.9940    5.9700 C   0  0  0  0  0  0  0  0  0  0  0  0
   28.4840   14.9870    6.8780 C   0  0  0  0  0  0  0  0  0  0  0  0
   28.1720   15.2020    8.3220 C   0  0  0  0  0  0  0  0  0  0  0  0
   28.6470   14.4150    9.1330 O   0  0  0  0  0  0  0  0  0  0  0  0
   27.4000   16.3150    8.5950 N   0  0  0  0  0  0  0  0  0  0  0  0
   26.9170   16.7310    9.8550 C   0  0  0  0  0  0  0  0  0  0  0  0
   27.4640   17.9000   10.3960 C   0  0  0  0  0  0  0  0  0  0  0  0
   27.0370   18.3840   11.6380 C   0  0  0  0  0  0  0  0  0  0  0  0
   26.0430   17.7140   12.3620 C   0  0  0  0  0  0  0  0  0  0  0  0
   25.5800   18.1960   13.7260 C   0  0  1  0  0  0  0  0  0  0  0  0
   26.3010   17.4160   14.8290 C   0  0  0  0  0  0  0  0  0  0  0  0
   25.7890   17.8530   16.1920 C   0  0  0  0  0  0  0  0  0  0  0  0
   25.9580   19.3390   16.3830 C   0  0  0  0  0  0  0  0  0  0  0  0
   26.0640   19.8510   17.4920 O   0  0  0  0  0  0  0  0  0  0  0  0
   25.9250   20.1080   15.2470 N   0  0  0  0  0  0  0  0  0  0  0  0
   25.7500   19.7000   13.9440 C   0  0  0  0  0  0  0  0  0  0  0  0
   25.6820   20.5400   13.0500 O   0  0  0  0  0  0  0  0  0  0  0  0
   25.5000   16.5430   11.8160 C   0  0  0  0  0  0  0  0  0  0  0  0
   25.9320   16.0580   10.5750 C   0  0  0  0  0  0  0  0  0  0  0  0
   29.1280   13.8210    6.4260 C   0  0  0  0  0  0  0  0  0  0  0  0
   29.3980   13.6250    5.0590 C   0  0  0  0  0  0  0  0  0  0  0  0
   29.0230   10.0910    7.6140 C   0  0  0  0  0  0  0  0  0  0  0  0
   27.8100   10.0480    8.1240 N   0  0  0  0  0  0  0  0  0  0  0  0
   24.7464    9.1845    8.6779 H   0  0  0  0  0  0  0  0  0  0  0  0
   23.8606    9.4192    7.1330 H   0  0  0  0  0  0  0  0  0  0  0  0
   25.4708    8.6230    7.1330 H   0  0  0  0  0  0  0  0  0  0  0  0
   25.0625   11.2678    6.5697 H   0  0  0  0  0  0  0  0  0  0  0  0
   25.3835   11.3256    8.3570 H   0  0  0  0  0  0  0  0  0  0  0  0
   27.3630   11.5760    5.1947 H   0  0  0  0  0  0  0  0  0  0  0  0
   30.7774   11.4398    2.7451 H   0  0  0  0  0  0  0  0  0  0  0  0
   29.0427   15.3048    2.1826 H   0  0  0  0  0  0  0  0  0  0  0  0
   28.1641   16.6224    3.8967 H   0  0  0  0  0  0  0  0  0  0  0  0
   27.6611   16.9149    6.3248 H   0  0  0  0  0  0  0  0  0  0  0  0
   27.1490   16.9068    7.7902 H   0  0  0  0  0  0  0  0  0  0  0  0
   28.2394   18.4454    9.8381 H   0  0  0  0  0  0  0  0  0  0  0  0
   27.4867   19.2997   12.0494 H   0  0  0  0  0  0  0  0  0  0  0  0
   24.4976   18.0046   13.7689 H   0  0  0  0  0  0  0  0  0  0  0  0
   26.1136   16.3402   14.6969 H   0  0  0  0  0  0  0  0  0  0  0  0
   27.3809   17.6161   14.7669 H   0  0  0  0  0  0  0  0  0  0  0  0
   24.7218   17.5992   16.2734 H   0  0  0  0  0  0  0  0  0  0  0  0
   26.3699   17.3322   16.9675 H   0  0  0  0  0  0  0  0  0  0  0  0
   26.0469   21.1211   15.3874 H   0  0  0  0  0  0  0  0  0  0  0  0
   24.7228   15.9965   12.3704 H   0  0  0  0  0  0  0  0  0  0  0  0
   25.4898   15.1379   10.1653 H   0  0  0  0  0  0  0  0  0  0  0  0
   29.4252   13.0504    7.1525 H   0  0  0  0  0  0  0  0  0  0  0  0
   29.9267    9.7097    8.1120 H   0  0  0  0  0  0  0  0  0  0  0  0
  1  2  1  0
  2  3  1  0
  3  4  2  0
  4  5  1  0
  5  6  1  0
  6  7  2  0
  6  8  2  0
  6  9  1  0
  9 10  2  0
 10 11  1  0
 11 12  2  0
 11 13  1  0
 13 14  1  0
 14 15  2  0
 15 16  1  0
 16 17  2  0
 17 18  1  0
 18 19  2  0
 18 20  1  0
 20 21  1  0
 21 22  2  0
 22 23  1  0
 23 24  2  0
 24 25  1  0
 25 26  1  0
 26 27  1  0
 27 28  1  0
 28 29  2  0
 28 30  1  0
 30 31  1  0
 31 32  2  0
 24 33  1  0
 33 34  2  0
 17 35  1  0
 35 36  2  0
  5 37  1  0
 37 38  2  0
 38  3  1  0
 36  9  1  0
 36 14  1  0
 34 21  1  0
 31 25  1  0
  1 39  1  0
  1 40  1  0
  1 41  1  0
  2 42  1  0
  2 43  1  0
  4 44  1  0
 10 45  1  0
 13 46  1  0
 15 47  1  0
 16 48  1  0
 20 49  1  0
 22 50  1  0
 23 51  1  0
 25 52  1  6
 26 53  1  0
 26 54  1  0
 27 55  1  0
 27 56  1  0
 30 57  1  0
 33 58  1  0
 34 59  1  0
 35 60  1  0
 37 61  1  0
M  END
>  <meeko>  (656) 
{"is_sidechain": [true], "free_energy": -11.81, "intermolecular_energy": 0.0, "internal_energy": -11.81, "cluster_size": 20, "cluster_id": 1, "rank_in_cluster": 1}

>  <_RMSD_MCS_to_ref>  (656) 
1.1281120844136

$$$$
ligand
     RDKit          3D

 56 60  0  0  0  0  0  0  0  0999 V2000
   24.8540    9.4020    7.6050 C   0  0  0  0  0  0  0  0  0  0  0  0
   25.5230   10.7550    7.4270 C   0  0  0  0  0  0  0  0  0  0  0  0
   25.1090   11.4240    6.1640 C   0  0  0  0  0  0  0  0  0  0  0  0
   24.7750   12.7470    5.9500 C   0  0  0  0  0  0  0  0  0  0  0  0
   24.4730   12.8050    4.6200 N   0  0  0  0  0  0  0  0  0  0  0  0
   24.1550   14.1940    3.7410 S   0  0  0  0  0  6  0  0  0  0  0  0
   25.0340   14.1670    2.5880 O   0  0  0  0  0  0  0  0  0  0  0  0
   22.7120   14.2960    3.6310 O   0  0  0  0  0  0  0  0  0  0  0  0
   24.6430   15.5860    4.6550 C   0  0  0  0  0  0  0  0  0  0  0  0
   24.4040   16.9130    4.2550 C   0  0  0  0  0  0  0  0  0  0  0  0
   24.9510   17.6800    5.2560 C   0  0  0  0  0  0  0  0  0  0  0  0
   25.4830   16.8170    6.1910 N   0  0  0  0  0  0  0  0  0  0  0  0
   26.1460   17.1390    7.4000 C   0  0  0  0  0  0  0  0  0  0  0  0
   27.4580   17.5970    7.3670 C   0  0  0  0  0  0  0  0  0  0  0  0
   28.1660   17.9210    8.4760 N   0  0  0  0  0  0  0  0  0  0  0  0
   27.5340   17.7810    9.6660 C   0  0  0  0  0  0  0  0  0  0  0  0
   26.2210   17.3390    9.8240 C   0  0  0  0  0  0  0  0  0  0  0  0
   25.5920   17.2150   11.1510 C   0  0  0  0  0  0  0  0  0  0  0  0
   24.5530   16.3040   11.3830 C   0  0  0  0  0  0  0  0  0  0  0  0
   23.9750   16.1930   12.6450 C   0  0  0  0  0  0  0  0  0  0  0  0
   24.4290   16.9870   13.7010 C   0  0  0  0  0  0  0  0  0  0  0  0
   25.4720   17.9050   13.5180 C   0  0  0  0  0  0  0  0  0  0  0  0
   25.9500   18.7230   14.5990 N   0  0  0  0  0  0  0  0  0  0  0  0
   26.6890   18.1060   15.6970 C   0  0  0  0  0  0  0  0  0  0  0  0
   26.3650   18.7800   17.0130 C   0  0  0  0  0  0  0  0  0  0  0  0
   26.6000   20.2520   16.8830 C   0  0  0  0  0  0  0  0  0  0  0  0
   26.8300   20.9720   17.8510 O   0  0  0  0  0  0  0  0  0  0  0  0
   26.4530   20.7680   15.6270 N   0  0  0  0  0  0  0  0  0  0  0  0
   25.9400   20.1210   14.5270 C   0  0  0  0  0  0  0  0  0  0  0  0
   25.5320   20.8050   13.5910 O   0  0  0  0  0  0  0  0  0  0  0  0
   26.0260   18.0090   12.2320 C   0  0  0  0  0  0  0  0  0  0  0  0
   25.5250   17.0130    8.6470 C   0  0  0  0  0  0  0  0  0  0  0  0
   25.2980   15.5210    5.8260 N   0  0  0  0  0  0  0  0  0  0  0  0
   24.6760   11.5840    4.0640 C   0  0  0  0  0  0  0  0  0  0  0  0
   25.0380   10.7120    4.9820 N   0  0  0  0  0  0  0  0  0  0  0  0
   24.7464    9.1845    8.6779 H   0  0  0  0  0  0  0  0  0  0  0  0
   23.8606    9.4192    7.1330 H   0  0  0  0  0  0  0  0  0  0  0  0
   25.4708    8.6230    7.1330 H   0  0  0  0  0  0  0  0  0  0  0  0
   25.2501   11.3997    8.2755 H   0  0  0  0  0  0  0  0  0  0  0  0
   26.6099   10.5915    7.3824 H   0  0  0  0  0  0  0  0  0  0  0  0
   24.7566   13.5665    6.6835 H   0  0  0  0  0  0  0  0  0  0  0  0
   23.8934   17.2597    3.3445 H   0  0  0  0  0  0  0  0  0  0  0  0
   24.9623   18.7790    5.3027 H   0  0  0  0  0  0  0  0  0  0  0  0
   27.9479   17.7021    6.3878 H   0  0  0  0  0  0  0  0  0  0  0  0
   28.0986   18.0349   10.5753 H   0  0  0  0  0  0  0  0  0  0  0  0
   24.1904   15.6703   10.5602 H   0  0  0  0  0  0  0  0  0  0  0  0
   23.1570   15.4766   12.8112 H   0  0  0  0  0  0  0  0  0  0  0  0
   23.9605   16.8901   14.6915 H   0  0  0  0  0  0  0  0  0  0  0  0
   26.4172   17.0420   15.7609 H   0  0  0  0  0  0  0  0  0  0  0  0
   27.7658   18.2167   15.5015 H   0  0  0  0  0  0  0  0  0  0  0  0
   25.3113   18.5970   17.2704 H   0  0  0  0  0  0  0  0  0  0  0  0
   27.0090   18.3716   17.8057 H   0  0  0  0  0  0  0  0  0  0  0  0
   26.7578   21.7422   15.4893 H   0  0  0  0  0  0  0  0  0  0  0  0
   26.8308   18.7392   12.0612 H   0  0  0  0  0  0  0  0  0  0  0  0
   24.4860   16.6568    8.7070 H   0  0  0  0  0  0  0  0  0  0  0  0
   24.5550   11.3545    2.9950 H   0  0  0  0  0  0  0  0  0  0  0  0
  1  2  1  0
  2  3  1  0
  3  4  2  0
  4  5  1  0
  5  6  1  0
  6  7  2  0
  6  8  2  0
  6  9  1  0
  9 10  1  0
 10 11  2  0
 11 12  1  0
 12 13  1  0
 13 14  2  0
 14 15  1  0
 15 16  2  0
 16 17  1  0
 17 18  1  0
 18 19  2  0
 19 20  1  0
 20 21  2  0
 21 22  1  0
 22 23  1  0
 23 24  1  0
 24 25  1  0
 25 26  1  0
 26 27  2  0
 26 28  1  0
 28 29  1  0
 29 30  2  0
 22 31  2  0
 17 32  2  0
 12 33  1  0
  5 34  1  0
 34 35  2  0
 35  3  1  0
 33  9  2  0
 32 13  1  0
 31 18  1  0
 29 23  1  0
  1 36  1  0
  1 37  1  0
  1 38  1  0
  2 39  1  0
  2 40  1  0
  4 41  1  0
 10 42  1  0
 11 43  1  0
 14 44  1  0
 16 45  1  0
 19 46  1  0
 20 47  1  0
 21 48  1  0
 24 49  1  0
 24 50  1  0
 25 51  1  0
 25 52  1  0
 28 53  1  0
 31 54  1  0
 32 55  1  0
 34 56  1  0
M  END
>  <meeko>  (657) 
{"is_sidechain": [true], "free_energy": -11.81, "intermolecular_energy": 0.0, "internal_energy": -11.81, "cluster_size": 16, "cluster_id": 1, "rank_in_cluster": 1}

>  <_RMSD_MCS_to_ref>  (657) 
0.8696424552653802

$$$$
ligand
     RDKit          3D

 48 51  0  0  0  0  0  0  0  0999 V2000
   24.8710    9.6170    7.7820 C   0  0  0  0  0  0  0  0  0  0  0  0
   25.4240   10.9640    7.3490 C   0  0  0  0  0  0  0  0  0  0  0  0
   26.5120   11.4440    8.2460 C   0  0  0  0  0  0  0  0  0  0  0  0
   27.7460   11.9650    7.9090 C   0  0  0  0  0  0  0  0  0  0  0  0
   28.3310   12.2520    9.1100 N   0  0  0  0  0  0  0  0  0  0  0  0
   29.6820   13.2440    9.3460 S   0  0  0  0  0  6  0  0  0  0  0  0
   30.6160   12.8710    8.2990 O   0  0  0  0  0  0  0  0  0  0  0  0
   30.0140   13.0580   10.7460 O   0  0  0  0  0  0  0  0  0  0  0  0
   29.2030   14.7990    9.1390 O   0  0  0  0  0  0  0  0  0  0  0  0
   27.8650   15.0800    9.1980 C   0  0  0  0  0  0  0  0  0  0  0  0
   27.0380   14.7450    8.1300 C   0  0  0  0  0  0  0  0  0  0  0  0
   25.6740   15.0130    8.2150 C   0  0  0  0  0  0  0  0  0  0  0  0
   25.1450   15.6010    9.3690 C   0  0  0  0  0  0  0  0  0  0  0  0
   25.9770   15.9440   10.4440 C   0  0  0  0  0  0  0  0  0  0  0  0
   25.4000   16.4800   11.6630 C   0  0  0  0  0  0  0  0  0  0  0  0
   25.9900   17.3720   12.5320 C   0  0  0  0  0  0  0  0  0  0  0  0
   25.0920   17.4790   13.5530 N   0  0  0  0  0  0  0  0  0  0  0  0
   25.2150   18.2730   14.7620 C   0  0  1  0  0  0  0  0  0  0  0  0
   26.2330   17.6940   15.7470 C   0  0  0  0  0  0  0  0  0  0  0  0
   26.3330   18.5920   16.9690 C   0  0  0  0  0  0  0  0  0  0  0  0
   26.7000   20.0030   16.5760 C   0  0  0  0  0  0  0  0  0  0  0  0
   27.2080   20.7920   17.3650 O   0  0  0  0  0  0  0  0  0  0  0  0
   26.3510   20.3910   15.3080 N   0  0  0  0  0  0  0  0  0  0  0  0
   25.5450   19.7180   14.4170 C   0  0  0  0  0  0  0  0  0  0  0  0
   25.0600   20.3150   13.4580 O   0  0  0  0  0  0  0  0  0  0  0  0
   23.9940   16.7380   13.3180 N   0  0  0  0  0  0  0  0  0  0  0  0
   24.1770   16.1120   12.1640 N   0  0  0  0  0  0  0  0  0  0  0  0
   27.3530   15.7160   10.3300 C   0  0  0  0  0  0  0  0  0  0  0  0
   27.4650   11.9400   10.1090 C   0  0  0  0  0  0  0  0  0  0  0  0
   26.3460   11.4460    9.6180 N   0  0  0  0  0  0  0  0  0  0  0  0
   24.8498    9.5653    8.8806 H   0  0  0  0  0  0  0  0  0  0  0  0
   23.8505    9.4962    7.3895 H   0  0  0  0  0  0  0  0  0  0  0  0
   25.5122    8.8140    7.3895 H   0  0  0  0  0  0  0  0  0  0  0  0
   25.8227   10.8709    6.3280 H   0  0  0  0  0  0  0  0  0  0  0  0
   24.6033   11.6949    7.3951 H   0  0  0  0  0  0  0  0  0  0  0  0
   28.1631   12.1149    6.9023 H   0  0  0  0  0  0  0  0  0  0  0  0
   27.4570   14.2738    7.2287 H   0  0  0  0  0  0  0  0  0  0  0  0
   25.0115   14.7620    7.3735 H   0  0  0  0  0  0  0  0  0  0  0  0
   24.0644   15.7963    9.4336 H   0  0  0  0  0  0  0  0  0  0  0  0
   26.9600   17.8799   12.4267 H   0  0  0  0  0  0  0  0  0  0  0  0
   24.2400   18.2434   15.2705 H   0  0  0  0  0  0  0  0  0  0  0  0
   25.9106   16.6891   16.0573 H   0  0  0  0  0  0  0  0  0  0  0  0
   27.2170   17.6326   15.2592 H   0  0  0  0  0  0  0  0  0  0  0  0
   25.3626   18.6038   17.4869 H   0  0  0  0  0  0  0  0  0  0  0  0
   27.1184   18.1972   17.6303 H   0  0  0  0  0  0  0  0  0  0  0  0
   26.7362   21.2898   14.9845 H   0  0  0  0  0  0  0  0  0  0  0  0
   28.0318   16.0383   11.1333 H   0  0  0  0  0  0  0  0  0  0  0  0
   27.6695   12.0804   11.1807 H   0  0  0  0  0  0  0  0  0  0  0  0
  1  2  1  0
  2  3  1  0
  3  4  2  0
  4  5  1  0
  5  6  1  0
  6  7  2  0
  6  8  2  0
  6  9  1  0
  9 10  1  0
 10 11  2  0
 11 12  1  0
 12 13  2  0
 13 14  1  0
 14 15  1  0
 15 16  2  0
 16 17  1  0
 17 18  1  0
 18 19  1  0
 19 20  1  0
 20 21  1  0
 21 22  2  0
 21 23  1  0
 23 24  1  0
 24 25  2  0
 17 26  1  0
 26 27  2  0
 14 28  2  0
  5 29  1  0
 29 30  2  0
 30  3  1  0
 28 10  1  0
 27 15  1  0
 24 18  1  0
  1 31  1  0
  1 32  1  0
  1 33  1  0
  2 34  1  0
  2 35  1  0
  4 36  1  0
 11 37  1  0
 12 38  1  0
 13 39  1  0
 16 40  1  0
 18 41  1  1
 19 42  1  0
 19 43  1  0
 20 44  1  0
 20 45  1  0
 23 46  1  0
 28 47  1  0
 29 48  1  0
M  END
>  <meeko>  (658) 
{"is_sidechain": [true], "free_energy": -11.81, "intermolecular_energy": 0.0, "internal_energy": -11.81, "cluster_size": 20, "cluster_id": 1, "rank_in_cluster": 1}

>  <_RMSD_MCS_to_ref>  (658) 
0.48018237276175707

$$$$
ligand
     RDKit          3D

 60 65  0  0  0  0  0  0  0  0999 V2000
   24.8710    9.6170    7.7820 C   0  0  0  0  0  0  0  0  0  0  0  0
   25.4240   10.9640    7.3490 C   0  0  0  0  0  0  0  0  0  0  0  0
   26.5580   11.4090    8.2060 C   0  0  0  0  0  0  0  0  0  0  0  0
   27.6090   12.2470    7.8860 C   0  0  0  0  0  0  0  0  0  0  0  0
   28.3500   12.3060    9.0300 N   0  0  0  0  0  0  0  0  0  0  0  0
   29.6710   13.3250    9.2940 S   0  0  0  0  0  6  0  0  0  0  0  0
   30.7060   12.7780    8.4360 O   0  0  0  0  0  0  0  0  0  0  0  0
   29.8220   13.3580   10.7380 O   0  0  0  0  0  0  0  0  0  0  0  0
   29.2310   14.7880    8.7060 O   0  0  0  0  0  0  0  0  0  0  0  0
   28.5640   14.8520    7.5150 C   0  0  0  0  0  0  0  0  0  0  0  0
   27.2130   15.2440    7.4790 C   0  0  0  0  0  0  0  0  0  0  0  0
   26.4930   15.6210    8.7040 C   0  0  0  0  0  0  0  0  0  0  0  0
   25.2580   15.0050    9.0260 C   0  0  0  0  0  0  0  0  0  0  0  0
   24.5860   15.2990   10.2160 C   0  0  0  0  0  0  0  0  0  0  0  0
   25.1780   16.2090   11.0670 C   0  0  0  0  0  0  0  0  0  0  0  0
   26.3830   16.8400   10.7730 C   0  0  0  0  0  0  0  0  0  0  0  0
   27.0460   16.5670    9.5890 C   0  0  0  0  0  0  0  0  0  0  0  0
   26.7720   17.7470   11.8950 C   0  0  0  0  0  0  0  0  0  0  0  0
   25.7150   17.5130   12.8700 N   0  0  0  0  0  0  0  0  0  0  0  0
   25.5370   18.3180   14.0710 C   0  0  1  0  0  0  0  0  0  0  0  0
   26.3110   17.7650   15.2640 C   0  0  0  0  0  0  0  0  0  0  0  0
   26.0050   18.6020   16.4960 C   0  0  0  0  0  0  0  0  0  0  0  0
   26.3090   20.0630   16.2540 C   0  0  0  0  0  0  0  0  0  0  0  0
   26.7430   20.7990   17.1350 O   0  0  0  0  0  0  0  0  0  0  0  0
   26.0540   20.5420   14.9950 N   0  0  0  0  0  0  0  0  0  0  0  0
   25.9380   19.7860   13.8490 C   0  0  0  0  0  0  0  0  0  0  0  0
   26.1510   20.2910   12.7490 O   0  0  0  0  0  0  0  0  0  0  0  0
   24.7300   16.6670   12.3870 C   0  0  0  0  0  0  0  0  0  0  0  0
   23.6950   16.3320   12.9280 O   0  0  0  0  0  0  0  0  0  0  0  0
   26.5570   15.2860    6.2250 C   0  0  0  0  0  0  0  0  0  0  0  0
   27.2200   14.9320    5.0420 C   0  0  0  0  0  0  0  0  0  0  0  0
   28.5360   14.5380    5.1360 C   0  0  0  0  0  0  0  0  0  0  0  0
   29.1950   14.4910    6.3400 C   0  0  0  0  0  0  0  0  0  0  0  0
   30.4810   14.0650    6.2120 O   0  0  0  0  0  0  0  0  0  0  0  0
   30.5670   13.8810    4.7840 C   0  0  0  0  0  0  0  0  0  0  0  0
   29.3260   14.1550    4.0970 O   0  0  0  0  0  0  0  0  0  0  0  0
   27.7440   11.5660    9.9930 C   0  0  0  0  0  0  0  0  0  0  0  0
   26.6530   10.9950    9.5230 N   0  0  0  0  0  0  0  0  0  0  0  0
   24.8498    9.5653    8.8806 H   0  0  0  0  0  0  0  0  0  0  0  0
   23.8505    9.4962    7.3895 H   0  0  0  0  0  0  0  0  0  0  0  0
   25.5122    8.8140    7.3895 H   0  0  0  0  0  0  0  0  0  0  0  0
   25.7753   10.8851    6.3096 H   0  0  0  0  0  0  0  0  0  0  0  0
   24.6177   11.7062    7.4440 H   0  0  0  0  0  0  0  0  0  0  0  0
   27.8037   12.7512    6.9280 H   0  0  0  0  0  0  0  0  0  0  0  0
   24.8189   14.2802    8.3247 H   0  0  0  0  0  0  0  0  0  0  0  0
   23.6250   14.8244   10.4635 H   0  0  0  0  0  0  0  0  0  0  0  0
   27.9878   17.0796    9.3436 H   0  0  0  0  0  0  0  0  0  0  0  0
   27.7566   17.4750   12.3030 H   0  0  0  0  0  0  0  0  0  0  0  0
   26.8662   18.8010   11.5946 H   0  0  0  0  0  0  0  0  0  0  0  0
   24.4615   18.2702   14.2968 H   0  0  0  0  0  0  0  0  0  0  0  0
   26.0109   16.7223   15.4448 H   0  0  0  0  0  0  0  0  0  0  0  0
   27.3897   17.8035   15.0521 H   0  0  0  0  0  0  0  0  0  0  0  0
   24.9396   18.4941   16.7474 H   0  0  0  0  0  0  0  0  0  0  0  0
   26.6368   18.2473   17.3236 H   0  0  0  0  0  0  0  0  0  0  0  0
   25.9385   21.5608   14.8968 H   0  0  0  0  0  0  0  0  0  0  0  0
   25.5048   15.6032    6.1782 H   0  0  0  0  0  0  0  0  0  0  0  0
   26.7058   14.9678    4.0702 H   0  0  0  0  0  0  0  0  0  0  0  0
   31.3405   14.5571    4.3908 H   0  0  0  0  0  0  0  0  0  0  0  0
   30.8115   12.8234    4.6058 H   0  0  0  0  0  0  0  0  0  0  0  0
   28.1126   11.4577   11.0237 H   0  0  0  0  0  0  0  0  0  0  0  0
  1  2  1  0
  2  3  1  0
  3  4  2  0
  4  5  1  0
  5  6  1  0
  6  7  2  0
  6  8  2  0
  6  9  1  0
  9 10  1  0
 10 11  1  0
 11 12  1  0
 12 13  2  0
 13 14  1  0
 14 15  2  0
 15 16  1  0
 16 17  2  0
 16 18  1  0
 18 19  1  0
 19 20  1  0
 20 21  1  0
 21 22  1  0
 22 23  1  0
 23 24  2  0
 23 25  1  0
 25 26  1  0
 26 27  2  0
 19 28  1  0
 28 29  2  0
 11 30  2  0
 30 31  1  0
 31 32  2  0
 32 33  1  0
 33 34  1  0
 34 35  1  0
 35 36  1  0
  5 37  1  0
 37 38  2  0
 38  3  1  0
 33 10  2  0
 17 12  1  0
 26 20  1  0
 36 32  1  0
 28 15  1  0
  1 39  1  0
  1 40  1  0
  1 41  1  0
  2 42  1  0
  2 43  1  0
  4 44  1  0
 13 45  1  0
 14 46  1  0
 17 47  1  0
 18 48  1  0
 18 49  1  0
 20 50  1  1
 21 51  1  0
 21 52  1  0
 22 53  1  0
 22 54  1  0
 25 55  1  0
 30 56  1  0
 31 57  1  0
 35 58  1  0
 35 59  1  0
 37 60  1  0
M  END
>  <meeko>  (659) 
{"is_sidechain": [true], "free_energy": -11.81, "intermolecular_energy": 0.0, "internal_energy": -11.81, "cluster_size": 5, "cluster_id": 1, "rank_in_cluster": 1}

>  <_RMSD_MCS_to_ref>  (659) 
1.1155138773347086

$$$$
ligand
     RDKit          3D

 48 51  0  0  0  0  0  0  0  0999 V2000
   24.8710    9.6160    7.7820 C   0  0  0  0  0  0  0  0  0  0  0  0
   25.4240   10.9650    7.3490 C   0  0  0  0  0  0  0  0  0  0  0  0
   26.4540   11.4780    8.2920 C   0  0  0  0  0  0  0  0  0  0  0  0
   27.2010   12.6370    8.2150 C   0  0  0  0  0  0  0  0  0  0  0  0
   27.9730   12.6120    9.3420 N   0  0  0  0  0  0  0  0  0  0  0  0
   29.1650   13.7380    9.7370 S   0  0  0  0  0  6  0  0  0  0  0  0
   29.9840   13.8850    8.5470 O   0  0  0  0  0  0  0  0  0  0  0  0
   29.7390   13.2130   10.9650 O   0  0  0  0  0  0  0  0  0  0  0  0
   28.4530   15.1570   10.0980 O   0  0  0  0  0  0  0  0  0  0  0  0
   27.1200   15.2750   10.1490 C   0  0  0  0  0  0  0  0  0  0  0  0
   26.4780   15.7980   11.2500 C   0  0  0  0  0  0  0  0  0  0  0  0
   25.1400   15.7470   10.9470 N   0  0  0  0  0  0  0  0  0  0  0  0
   23.9850   16.1080   11.6320 C   0  0  0  0  0  0  0  0  0  0  0  0
   24.0170   16.7500   12.9720 C   0  0  0  0  0  0  0  0  0  0  0  0
   23.1100   16.5860   13.7790 O   0  0  0  0  0  0  0  0  0  0  0  0
   25.0880   17.5740   13.2110 N   0  0  0  0  0  0  0  0  0  0  0  0
   25.1650   18.3860   14.4190 C   0  0  1  0  0  0  0  0  0  0  0  0
   25.9150   17.6790   15.5430 C   0  0  0  0  0  0  0  0  0  0  0  0
   25.9960   18.5960   16.7530 C   0  0  0  0  0  0  0  0  0  0  0  0
   26.6310   19.9200   16.3980 C   0  0  0  0  0  0  0  0  0  0  0  0
   27.3320   20.5480   17.1860 O   0  0  0  0  0  0  0  0  0  0  0  0
   26.3620   20.4160   15.1470 N   0  0  0  0  0  0  0  0  0  0  0  0
   25.8910   19.6920   14.0800 C   0  0  0  0  0  0  0  0  0  0  0  0
   26.0400   20.0850   12.9230 O   0  0  0  0  0  0  0  0  0  0  0  0
   22.8060   15.9130   10.9970 C   0  0  0  0  0  0  0  0  0  0  0  0
   22.6700   15.3420    9.7380 N   0  0  0  0  0  0  0  0  0  0  0  0
   23.7600   14.9940    9.1080 C   0  0  0  0  0  0  0  0  0  0  0  0
   25.0560   15.1890    9.6950 C   0  0  0  0  0  0  0  0  0  0  0  0
   26.2300   14.8900    9.1870 N   0  0  0  0  0  0  0  0  0  0  0  0
   27.7170   11.4720   10.0330 C   0  0  0  0  0  0  0  0  0  0  0  0
   26.7860   10.7640    9.4260 N   0  0  0  0  0  0  0  0  0  0  0  0
   24.8497    9.5640    8.8806 H   0  0  0  0  0  0  0  0  0  0  0  0
   23.8507    9.4948    7.3893 H   0  0  0  0  0  0  0  0  0  0  0  0
   25.5127    8.8135    7.3893 H   0  0  0  0  0  0  0  0  0  0  0  0
   25.8774   10.8588    6.3524 H   0  0  0  0  0  0  0  0  0  0  0  0
   24.5909   11.6832    7.3349 H   0  0  0  0  0  0  0  0  0  0  0  0
   27.1794   13.4043    7.4271 H   0  0  0  0  0  0  0  0  0  0  0  0
   26.9390   16.1758   12.1745 H   0  0  0  0  0  0  0  0  0  0  0  0
   25.8530   17.6196   12.5228 H   0  0  0  0  0  0  0  0  0  0  0  0
   24.1399   18.5750   14.7705 H   0  0  0  0  0  0  0  0  0  0  0  0
   25.3813   16.7569   15.8167 H   0  0  0  0  0  0  0  0  0  0  0  0
   26.9310   17.4277   15.2046 H   0  0  0  0  0  0  0  0  0  0  0  0
   24.9801   18.7768   17.1340 H   0  0  0  0  0  0  0  0  0  0  0  0
   26.6177   18.1072   17.5176 H   0  0  0  0  0  0  0  0  0  0  0  0
   26.5283   21.4211   14.9951 H   0  0  0  0  0  0  0  0  0  0  0  0
   21.8889   16.2296   11.5154 H   0  0  0  0  0  0  0  0  0  0  0  0
   23.6837   14.5425    8.1078 H   0  0  0  0  0  0  0  0  0  0  0  0
   28.2167   11.1801   10.9685 H   0  0  0  0  0  0  0  0  0  0  0  0
  1  2  1  0
  2  3  1  0
  3  4  2  0
  4  5  1  0
  5  6  1  0
  6  7  2  0
  6  8  2  0
  6  9  1  0
  9 10  1  0
 10 11  2  0
 11 12  1  0
 12 13  1  0
 13 14  1  0
 14 15  2  0
 14 16  1  0
 16 17  1  0
 17 18  1  0
 18 19  1  0
 19 20  1  0
 20 21  2  0
 20 22  1  0
 22 23  1  0
 23 24  2  0
 13 25  2  0
 25 26  1  0
 26 27  2  0
 27 28  1  0
 28 29  2  0
  5 30  1  0
 30 31  2  0
 31  3  1  0
 29 10  1  0
 28 12  1  0
 23 17  1  0
  1 32  1  0
  1 33  1  0
  1 34  1  0
  2 35  1  0
  2 36  1  0
  4 37  1  0
 11 38  1  0
 16 39  1  0
 17 40  1  1
 18 41  1  0
 18 42  1  0
 19 43  1  0
 19 44  1  0
 22 45  1  0
 25 46  1  0
 27 47  1  0
 30 48  1  0
M  END
>  <meeko>  (660) 
{"is_sidechain": [true], "free_energy": -11.81, "intermolecular_energy": 0.0, "internal_energy": -11.81, "cluster_size": 19, "cluster_id": 1, "rank_in_cluster": 1}

>  <_RMSD_MCS_to_ref>  (660) 
0.702869436271377

$$$$
ligand
     RDKit          3D

 57 61  0  0  0  0  0  0  0  0999 V2000
   24.8710    9.6160    7.7820 C   0  0  0  0  0  0  0  0  0  0  0  0
   25.4240   10.9650    7.3490 C   0  0  0  0  0  0  0  0  0  0  0  0
   26.8480   11.1920    7.7290 C   0  0  0  0  0  0  0  0  0  0  0  0
   27.3700   12.2610    8.4310 C   0  0  0  0  0  0  0  0  0  0  0  0
   28.6950   11.9630    8.5620 N   0  0  0  0  0  0  0  0  0  0  0  0
   29.8770   12.9720    9.2140 S   0  0  0  0  0  6  0  0  0  0  0  0
   29.6630   12.9040   10.6480 O   0  0  0  0  0  0  0  0  0  0  0  0
   31.1250   12.5100    8.6310 O   0  0  0  0  0  0  0  0  0  0  0  0
   29.5570   14.5010    8.7290 O   0  0  0  0  0  0  0  0  0  0  0  0
   28.9330   14.7150    7.5240 C   0  0  0  0  0  0  0  0  0  0  0  0
   29.6420   14.4540    6.3450 C   0  0  0  0  0  0  0  0  0  0  0  0
   29.0410   14.6710    5.1080 C   0  0  0  0  0  0  0  0  0  0  0  0
   27.7440   15.1690    5.0480 C   0  0  0  0  0  0  0  0  0  0  0  0
   27.0500   15.4580    6.2270 C   0  0  0  0  0  0  0  0  0  0  0  0
   27.6300   15.2470    7.4930 C   0  0  0  0  0  0  0  0  0  0  0  0
   26.8690   15.5930    8.7110 C   0  0  0  0  0  0  0  0  0  0  0  0
   25.6520   14.9310    9.0210 C   0  0  0  0  0  0  0  0  0  0  0  0
   24.9330   15.2200   10.1850 C   0  0  0  0  0  0  0  0  0  0  0  0
   25.4620   16.1670   11.0380 C   0  0  0  0  0  0  0  0  0  0  0  0
   26.6520   16.8340   10.7720 C   0  0  0  0  0  0  0  0  0  0  0  0
   27.3580   16.5660    9.6100 C   0  0  0  0  0  0  0  0  0  0  0  0
   26.9670   17.7830   11.8810 C   0  0  0  0  0  0  0  0  0  0  0  0
   25.8990   17.5160   12.8360 N   0  0  0  0  0  0  0  0  0  0  0  0
   25.6560   18.3230   14.0260 C   0  0  1  0  0  0  0  0  0  0  0  0
   26.3680   17.7700   15.2570 C   0  0  0  0  0  0  0  0  0  0  0  0
   25.9900   18.6000   16.4760 C   0  0  0  0  0  0  0  0  0  0  0  0
   26.3010   20.0620   16.2570 C   0  0  0  0  0  0  0  0  0  0  0  0
   26.6830   20.7950   17.1630 O   0  0  0  0  0  0  0  0  0  0  0  0
   26.1150   20.5450   14.9860 N   0  0  0  0  0  0  0  0  0  0  0  0
   26.0580   19.7940   13.8330 C   0  0  0  0  0  0  0  0  0  0  0  0
   26.3210   20.3080   12.7490 O   0  0  0  0  0  0  0  0  0  0  0  0
   24.9530   16.6360   12.3320 C   0  0  0  0  0  0  0  0  0  0  0  0
   23.9050   16.2880   12.8390 O   0  0  0  0  0  0  0  0  0  0  0  0
   28.9610   10.8110    7.8950 C   0  0  0  0  0  0  0  0  0  0  0  0
   27.8550   10.3100    7.3820 N   0  0  0  0  0  0  0  0  0  0  0  0
   24.8497    9.5640    8.8806 H   0  0  0  0  0  0  0  0  0  0  0  0
   23.8507    9.4948    7.3893 H   0  0  0  0  0  0  0  0  0  0  0  0
   25.5127    8.8135    7.3893 H   0  0  0  0  0  0  0  0  0  0  0  0
   25.3436   11.0356    6.2542 H   0  0  0  0  0  0  0  0  0  0  0  0
   24.8316   11.7316    7.8700 H   0  0  0  0  0  0  0  0  0  0  0  0
   26.8383   13.1503    8.8004 H   0  0  0  0  0  0  0  0  0  0  0  0
   30.6742   14.0774    6.3962 H   0  0  0  0  0  0  0  0  0  0  0  0
   29.5903   14.4492    4.1812 H   0  0  0  0  0  0  0  0  0  0  0  0
   27.2637   15.3357    4.0725 H   0  0  0  0  0  0  0  0  0  0  0  0
   26.0277   15.8593    6.1643 H   0  0  0  0  0  0  0  0  0  0  0  0
   25.2643   14.1706    8.3271 H   0  0  0  0  0  0  0  0  0  0  0  0
   23.9836   14.7127   10.4116 H   0  0  0  0  0  0  0  0  0  0  0  0
   28.2906   17.1062    9.3900 H   0  0  0  0  0  0  0  0  0  0  0  0
   27.9538   17.5704   12.3182 H   0  0  0  0  0  0  0  0  0  0  0  0
   27.0155   18.8337   11.5591 H   0  0  0  0  0  0  0  0  0  0  0  0
   24.5694   18.2730   14.1897 H   0  0  0  0  0  0  0  0  0  0  0  0
   26.0657   16.7245   15.4169 H   0  0  0  0  0  0  0  0  0  0  0  0
   27.4563   17.8171   15.1038 H   0  0  0  0  0  0  0  0  0  0  0  0
   24.9127   18.4868   16.6676 H   0  0  0  0  0  0  0  0  0  0  0  0
   26.5756   18.2436   17.3363 H   0  0  0  0  0  0  0  0  0  0  0  0
   26.0080   21.5644   14.8849 H   0  0  0  0  0  0  0  0  0  0  0  0
   29.9591   10.3592    7.7965 H   0  0  0  0  0  0  0  0  0  0  0  0
  1  2  1  0
  2  3  1  0
  3  4  2  0
  4  5  1  0
  5  6  1  0
  6  7  2  0
  6  8  2  0
  6  9  1  0
  9 10  1  0
 10 11  2  0
 11 12  1  0
 12 13  2  0
 13 14  1  0
 14 15  2  0
 15 16  1  0
 16 17  2  0
 17 18  1  0
 18 19  2  0
 19 20  1  0
 20 21  2  0
 20 22  1  0
 22 23  1  0
 23 24  1  0
 24 25  1  0
 25 26  1  0
 26 27  1  0
 27 28  2  0
 27 29  1  0
 29 30  1  0
 30 31  2  0
 23 32  1  0
 32 33  2  0
  5 34  1  0
 34 35  2  0
 35  3  1  0
 15 10  1  0
 21 16  1  0
 30 24  1  0
 32 19  1  0
  1 36  1  0
  1 37  1  0
  1 38  1  0
  2 39  1  0
  2 40  1  0
  4 41  1  0
 11 42  1  0
 12 43  1  0
 13 44  1  0
 14 45  1  0
 17 46  1  0
 18 47  1  0
 21 48  1  0
 22 49  1  0
 22 50  1  0
 24 51  1  1
 25 52  1  0
 25 53  1  0
 26 54  1  0
 26 55  1  0
 29 56  1  0
 34 57  1  0
M  END
>  <meeko>  (661) 
{"is_sidechain": [true], "free_energy": -11.81, "intermolecular_energy": 0.0, "internal_energy": -11.81, "cluster_size": 8, "cluster_id": 1, "rank_in_cluster": 1}

>  <_RMSD_MCS_to_ref>  (661) 
1.3362017260247718

$$$$
ligand
     RDKit          3D

 56 60  0  0  0  0  0  0  0  0999 V2000
   24.8540    9.4020    7.6050 C   0  0  0  0  0  0  0  0  0  0  0  0
   25.5230   10.7550    7.4270 C   0  0  0  0  0  0  0  0  0  0  0  0
   24.9270   11.5340    6.3070 C   0  0  0  0  0  0  0  0  0  0  0  0
   25.2390   12.8070    5.8750 C   0  0  0  0  0  0  0  0  0  0  0  0
   24.3730   13.0340    4.8450 N   0  0  0  0  0  0  0  0  0  0  0  0
   24.4290   14.3320    3.7780 S   0  0  0  0  0  6  0  0  0  0  0  0
   23.0900   14.4580    3.2380 O   0  0  0  0  0  0  0  0  0  0  0  0
   25.5900   14.1040    2.9390 O   0  0  0  0  0  0  0  0  0  0  0  0
   24.7580   15.7080    4.8400 C   0  0  0  0  0  0  0  0  0  0  0  0
   24.5600   17.0100    4.3690 C   0  0  0  0  0  0  0  0  0  0  0  0
   24.7860   18.0860    5.2230 C   0  0  0  0  0  0  0  0  0  0  0  0
   25.2020   17.8570    6.5360 C   0  0  0  0  0  0  0  0  0  0  0  0
   25.3990   16.5540    7.0040 C   0  0  0  0  0  0  0  0  0  0  0  0
   25.8130   16.4510    8.3150 O   0  0  0  0  0  0  0  0  0  0  0  0
   24.8760   16.1630    9.2680 C   0  0  0  0  0  0  0  0  0  0  0  0
   23.8000   15.3460    8.8930 C   0  0  0  0  0  0  0  0  0  0  0  0
   22.8150   14.9760    9.8300 C   0  0  0  0  0  0  0  0  0  0  0  0
   22.9010   15.4030   11.1550 C   0  0  0  0  0  0  0  0  0  0  0  0
   23.9860   16.1890   11.5000 C   0  0  0  0  0  0  0  0  0  0  0  0
   24.9590   16.5610   10.5880 C   0  0  0  0  0  0  0  0  0  0  0  0
   25.9480   17.3580   11.3210 C   0  0  0  0  0  0  0  0  0  0  0  0
   26.9820   17.7960   10.8540 O   0  0  0  0  0  0  0  0  0  0  0  0
   25.4870   17.4780   12.6050 N   0  0  0  0  0  0  0  0  0  0  0  0
   26.2210   18.0950   13.7000 C   0  0  2  0  0  0  0  0  0  0  0  0
   25.8240   17.5860   15.0820 C   0  0  0  0  0  0  0  0  0  0  0  0
   26.6670   18.2830   16.1380 C   0  0  0  0  0  0  0  0  0  0  0  0
   26.5300   19.7860   16.0420 C   0  0  0  0  0  0  0  0  0  0  0  0
   26.6540   20.5190   17.0180 O   0  0  0  0  0  0  0  0  0  0  0  0
   26.3100   20.3040   14.7900 N   0  0  0  0  0  0  0  0  0  0  0  0
   26.0570   19.6170   13.6240 C   0  0  0  0  0  0  0  0  0  0  0  0
   25.7780   20.2240   12.5910 O   0  0  0  0  0  0  0  0  0  0  0  0
   24.3420   16.7570   12.7960 C   0  0  0  0  0  0  0  0  0  0  0  0
   23.7020   16.5900   13.8160 O   0  0  0  0  0  0  0  0  0  0  0  0
   25.2060   15.4720    6.1440 C   0  0  0  0  0  0  0  0  0  0  0  0
   23.6180   11.9220    4.6450 C   0  0  0  0  0  0  0  0  0  0  0  0
   23.9270   10.9890    5.5230 N   0  0  0  0  0  0  0  0  0  0  0  0
   24.7464    9.1845    8.6779 H   0  0  0  0  0  0  0  0  0  0  0  0
   23.8606    9.4192    7.1330 H   0  0  0  0  0  0  0  0  0  0  0  0
   25.4708    8.6230    7.1330 H   0  0  0  0  0  0  0  0  0  0  0  0
   25.4113   11.3306    8.3577 H   0  0  0  0  0  0  0  0  0  0  0  0
   26.5826   10.5792    7.1898 H   0  0  0  0  0  0  0  0  0  0  0  0
   26.0101   13.4844    6.2707 H   0  0  0  0  0  0  0  0  0  0  0  0
   24.2290   17.1821    3.3342 H   0  0  0  0  0  0  0  0  0  0  0  0
   24.6371   19.1150    4.8639 H   0  0  0  0  0  0  0  0  0  0  0  0
   25.3764   18.7096    7.2087 H   0  0  0  0  0  0  0  0  0  0  0  0
   23.7240   14.9897    7.8551 H   0  0  0  0  0  0  0  0  0  0  0  0
   21.9711   14.3451    9.5139 H   0  0  0  0  0  0  0  0  0  0  0  0
   22.1367   15.1259   11.8960 H   0  0  0  0  0  0  0  0  0  0  0  0
   27.2760   17.8101   13.5740 H   0  0  0  0  0  0  0  0  0  0  0  0
   24.7602   17.8012   15.2608 H   0  0  0  0  0  0  0  0  0  0  0  0
   25.9915   16.5002   15.1358 H   0  0  0  0  0  0  0  0  0  0  0  0
   26.3365   17.9554   17.1347 H   0  0  0  0  0  0  0  0  0  0  0  0
   27.7217   18.0179   15.9728 H   0  0  0  0  0  0  0  0  0  0  0  0
   26.3375   21.3308   14.7136 H   0  0  0  0  0  0  0  0  0  0  0  0
   25.4038   14.4459    6.4874 H   0  0  0  0  0  0  0  0  0  0  0  0
   22.8552   11.8154    3.8597 H   0  0  0  0  0  0  0  0  0  0  0  0
  1  2  1  0
  2  3  1  0
  3  4  2  0
  4  5  1  0
  5  6  1  0
  6  7  2  0
  6  8  2  0
  6  9  1  0
  9 10  2  0
 10 11  1  0
 11 12  2  0
 12 13  1  0
 13 14  1  0
 14 15  1  0
 15 16  2  0
 16 17  1  0
 17 18  2  0
 18 19  1  0
 19 20  2  0
 20 21  1  0
 21 22  2  0
 21 23  1  0
 23 24  1  0
 24 25  1  0
 25 26  1  0
 26 27  1  0
 27 28  2  0
 27 29  1  0
 29 30  1  0
 30 31  2  0
 23 32  1  0
 32 33  2  0
 13 34  2  0
  5 35  1  0
 35 36  2  0
 36  3  1  0
 34  9  1  0
 20 15  1  0
 30 24  1  0
 32 19  1  0
  1 37  1  0
  1 38  1  0
  1 39  1  0
  2 40  1  0
  2 41  1  0
  4 42  1  0
 10 43  1  0
 11 44  1  0
 12 45  1  0
 16 46  1  0
 17 47  1  0
 18 48  1  0
 24 49  1  6
 25 50  1  0
 25 51  1  0
 26 52  1  0
 26 53  1  0
 29 54  1  0
 34 55  1  0
 35 56  1  0
M  END
>  <meeko>  (662) 
{"is_sidechain": [true], "free_energy": -11.8, "intermolecular_energy": 0.0, "internal_energy": -11.8, "cluster_size": 2, "cluster_id": 2, "rank_in_cluster": 1}

>  <_RMSD_MCS_to_ref>  (662) 
1.0970502368725965

$$$$
ligand
     RDKit          3D

 58 63  0  0  0  0  0  0  0  0999 V2000
   24.8540    9.4020    7.6050 C   0  0  0  0  0  0  0  0  0  0  0  0
   25.5230   10.7550    7.4270 C   0  0  0  0  0  0  0  0  0  0  0  0
   25.0830   11.4400    6.1820 C   0  0  0  0  0  0  0  0  0  0  0  0
   25.4780   12.6650    5.6790 C   0  0  0  0  0  0  0  0  0  0  0  0
   24.7760   12.7890    4.5130 N   0  0  0  0  0  0  0  0  0  0  0  0
   24.7370   14.1350    3.5210 S   0  0  0  0  0  6  0  0  0  0  0  0
   24.8990   13.6550    2.1610 O   0  0  0  0  0  0  0  0  0  0  0  0
   23.5990   14.9280    3.9440 O   0  0  0  0  0  0  0  0  0  0  0  0
   26.1230   15.1290    3.8230 C   0  0  0  0  0  0  0  0  0  0  0  0
   27.0540   15.4190    2.8910 N   0  0  0  0  0  0  0  0  0  0  0  0
   27.9260   16.2010    3.5640 N   0  0  0  0  0  0  0  0  0  0  0  0
   27.5820   16.4180    4.8650 C   0  0  0  0  0  0  0  0  0  0  0  0
   28.2680   17.1590    5.7510 N   0  0  0  0  0  0  0  0  0  0  0  0
   27.6750   17.1870    6.9750 C   0  0  0  0  0  0  0  0  0  0  0  0
   26.4880   16.5430    7.3480 C   0  0  0  0  0  0  0  0  0  0  0  0
   25.9460   16.6550    8.7120 C   0  0  0  0  0  0  0  0  0  0  0  0
   24.6950   16.0720    9.0430 C   0  0  0  0  0  0  0  0  0  0  0  0
   24.1610   16.1660   10.3330 C   0  0  0  0  0  0  0  0  0  0  0  0
   24.8990   16.8490   11.2760 C   0  0  0  0  0  0  0  0  0  0  0  0
   26.1250   17.4370   10.9880 C   0  0  0  0  0  0  0  0  0  0  0  0
   26.6600   17.3500    9.7120 C   0  0  0  0  0  0  0  0  0  0  0  0
   26.6640   18.1180   12.2020 C   0  0  0  0  0  0  0  0  0  0  0  0
   25.6780   17.7780   13.2200 N   0  0  0  0  0  0  0  0  0  0  0  0
   25.6210   18.4170   14.5300 C   0  0  1  0  0  0  0  0  0  0  0  0
   26.6760   17.8770   15.4900 C   0  0  0  0  0  0  0  0  0  0  0  0
   26.4950   18.5230   16.8540 C   0  0  0  0  0  0  0  0  0  0  0  0
   26.5400   20.0300   16.7560 C   0  0  0  0  0  0  0  0  0  0  0  0
   27.0420   20.7310   17.6290 O   0  0  0  0  0  0  0  0  0  0  0  0
   25.9730   20.5880   15.6380 N   0  0  0  0  0  0  0  0  0  0  0  0
   25.7650   19.9460   14.4390 C   0  0  0  0  0  0  0  0  0  0  0  0
   25.7160   20.5880   13.3910 O   0  0  0  0  0  0  0  0  0  0  0  0
   24.5890   17.1040   12.6870 C   0  0  0  0  0  0  0  0  0  0  0  0
   23.5640   16.7710   13.2490 O   0  0  0  0  0  0  0  0  0  0  0  0
   25.8320   15.7870    6.3610 C   0  0  0  0  0  0  0  0  0  0  0  0
   26.4000   15.7260    5.0770 C   0  0  0  0  0  0  0  0  0  0  0  0
   23.9610   11.7130    4.3670 C   0  0  0  0  0  0  0  0  0  0  0  0
   24.1420   10.8590    5.3530 N   0  0  0  0  0  0  0  0  0  0  0  0
   24.7464    9.1845    8.6779 H   0  0  0  0  0  0  0  0  0  0  0  0
   23.8606    9.4192    7.1330 H   0  0  0  0  0  0  0  0  0  0  0  0
   25.4708    8.6230    7.1330 H   0  0  0  0  0  0  0  0  0  0  0  0
   25.2716   11.3906    8.2888 H   0  0  0  0  0  0  0  0  0  0  0  0
   26.6080   10.5884    7.3554 H   0  0  0  0  0  0  0  0  0  0  0  0
   26.1933   13.3769    6.1167 H   0  0  0  0  0  0  0  0  0  0  0  0
   28.7736   16.5972    3.1333 H   0  0  0  0  0  0  0  0  0  0  0  0
   28.1805   17.7772    7.7535 H   0  0  0  0  0  0  0  0  0  0  0  0
   24.1317   15.5333    8.2668 H   0  0  0  0  0  0  0  0  0  0  0  0
   23.1908   15.7128   10.5846 H   0  0  0  0  0  0  0  0  0  0  0  0
   27.6290   17.8168    9.4816 H   0  0  0  0  0  0  0  0  0  0  0  0
   27.6585   17.7296   12.4668 H   0  0  0  0  0  0  0  0  0  0  0  0
   26.8027   19.2013   12.0712 H   0  0  0  0  0  0  0  0  0  0  0  0
   24.6243   18.1731   14.9263 H   0  0  0  0  0  0  0  0  0  0  0  0
   26.5643   16.7866   15.5826 H   0  0  0  0  0  0  0  0  0  0  0  0
   27.6789   18.1103   15.1030 H   0  0  0  0  0  0  0  0  0  0  0  0
   25.5223   18.2194   17.2684 H   0  0  0  0  0  0  0  0  0  0  0  0
   27.3157   18.1921   17.5074 H   0  0  0  0  0  0  0  0  0  0  0  0
   25.6775   21.5726   15.7019 H   0  0  0  0  0  0  0  0  0  0  0  0
   24.8961   15.2556    6.5883 H   0  0  0  0  0  0  0  0  0  0  0  0
   23.2488   11.5739    3.5403 H   0  0  0  0  0  0  0  0  0  0  0  0
  1  2  1  0
  2  3  1  0
  3  4  2  0
  4  5  1  0
  5  6  1  0
  6  7  2  0
  6  8  2  0
  6  9  1  0
  9 10  2  0
 10 11  1  0
 11 12  1  0
 12 13  2  0
 13 14  1  0
 14 15  2  0
 15 16  1  0
 16 17  2  0
 17 18  1  0
 18 19  2  0
 19 20  1  0
 20 21  2  0
 20 22  1  0
 22 23  1  0
 23 24  1  0
 24 25  1  0
 25 26  1  0
 26 27  1  0
 27 28  2  0
 27 29  1  0
 29 30  1  0
 30 31  2  0
 23 32  1  0
 32 33  2  0
 15 34  1  0
 34 35  2  0
  5 36  1  0
 36 37  2  0
 37  3  1  0
 35  9  1  0
 35 12  1  0
 21 16  1  0
 30 24  1  0
 32 19  1  0
  1 38  1  0
  1 39  1  0
  1 40  1  0
  2 41  1  0
  2 42  1  0
  4 43  1  0
 11 44  1  0
 14 45  1  0
 17 46  1  0
 18 47  1  0
 21 48  1  0
 22 49  1  0
 22 50  1  0
 24 51  1  1
 25 52  1  0
 25 53  1  0
 26 54  1  0
 26 55  1  0
 29 56  1  0
 34 57  1  0
 36 58  1  0
M  END
>  <meeko>  (663) 
{"is_sidechain": [true], "free_energy": -11.8, "intermolecular_energy": 0.0, "internal_energy": -11.8, "cluster_size": 19, "cluster_id": 1, "rank_in_cluster": 1}

>  <_RMSD_MCS_to_ref>  (663) 
0.7127159321917806

$$$$
ligand
     RDKit          3D

 60 65  0  0  0  0  0  0  0  0999 V2000
   24.8710    9.6160    7.7820 C   0  0  0  0  0  0  0  0  0  0  0  0
   25.4240   10.9650    7.3490 C   0  0  0  0  0  0  0  0  0  0  0  0
   26.9030   10.9490    7.1710 C   0  0  0  0  0  0  0  0  0  0  0  0
   27.6910   11.7780    6.3950 C   0  0  0  0  0  0  0  0  0  0  0  0
   28.9590   11.3200    6.5970 N   0  0  0  0  0  0  0  0  0  0  0  0
   30.3850   12.0030    6.0090 S   0  0  0  0  0  6  0  0  0  0  0  0
   31.4620   11.4070    6.7810 O   0  0  0  0  0  0  0  0  0  0  0  0
   30.3010   11.7770    4.5760 O   0  0  0  0  0  0  0  0  0  0  0  0
   30.3750   13.6130    6.2470 O   0  0  0  0  0  0  0  0  0  0  0  0
   29.2060   14.3000    6.0490 C   0  0  0  0  0  0  0  0  0  0  0  0
   28.8470   14.5880    4.7440 C   0  0  0  0  0  0  0  0  0  0  0  0
   27.6170   15.2360    4.5650 C   0  0  0  0  0  0  0  0  0  0  0  0
   26.9010   15.6940    3.4260 C   0  0  0  0  0  0  0  0  0  0  0  0
   25.7200   16.2440    3.8690 C   0  0  0  0  0  0  0  0  0  0  0  0
   25.6910   16.1350    5.2330 N   0  0  0  0  0  0  0  0  0  0  0  0
   26.8470   15.5390    5.6900 C   0  0  0  0  0  0  0  0  0  0  0  0
   27.2660   15.2160    6.9850 C   0  0  0  0  0  0  0  0  0  0  0  0
   26.5060   15.4950    8.2030 C   0  0  0  0  0  0  0  0  0  0  0  0
   25.1890   15.0000    8.3810 C   0  0  0  0  0  0  0  0  0  0  0  0
   24.4510   15.2860    9.5340 C   0  0  0  0  0  0  0  0  0  0  0  0
   25.0520   16.0730   10.4940 C   0  0  0  0  0  0  0  0  0  0  0  0
   26.3370   16.5840   10.3480 C   0  0  0  0  0  0  0  0  0  0  0  0
   27.0710   16.3070    9.2080 C   0  0  0  0  0  0  0  0  0  0  0  0
   26.6890   17.4280   11.5250 C   0  0  0  0  0  0  0  0  0  0  0  0
   25.5260   17.2730   12.3890 N   0  0  0  0  0  0  0  0  0  0  0  0
   25.3290   18.1320   13.5510 C   0  0  2  0  0  0  0  0  0  0  0  0
   25.9130   19.5340   13.3830 C   0  0  0  0  0  0  0  0  0  0  0  0
   25.5970   20.3630   14.6180 C   0  0  0  0  0  0  0  0  0  0  0  0
   26.1160   19.6990   15.8710 C   0  0  0  0  0  0  0  0  0  0  0  0
   26.3720   20.3340   16.8900 O   0  0  0  0  0  0  0  0  0  0  0  0
   26.2170   18.3300   15.8480 N   0  0  0  0  0  0  0  0  0  0  0  0
   25.8710   17.4730   14.8290 C   0  0  0  0  0  0  0  0  0  0  0  0
   25.9130   16.2550   15.0020 O   0  0  0  0  0  0  0  0  0  0  0  0
   24.5130   16.5540   11.7710 C   0  0  0  0  0  0  0  0  0  0  0  0
   23.3800   16.3520   12.1610 O   0  0  0  0  0  0  0  0  0  0  0  0
   28.4540   14.5690    7.1290 N   0  0  0  0  0  0  0  0  0  0  0  0
   28.9280   10.2950    7.4880 C   0  0  0  0  0  0  0  0  0  0  0  0
   27.6860   10.0190    7.8330 N   0  0  0  0  0  0  0  0  0  0  0  0
   24.8497    9.5640    8.8806 H   0  0  0  0  0  0  0  0  0  0  0  0
   23.8507    9.4948    7.3893 H   0  0  0  0  0  0  0  0  0  0  0  0
   25.5127    8.8135    7.3893 H   0  0  0  0  0  0  0  0  0  0  0  0
   24.9574   11.2464    6.3934 H   0  0  0  0  0  0  0  0  0  0  0  0
   25.1925   11.6898    8.1434 H   0  0  0  0  0  0  0  0  0  0  0  0
   27.3686   12.6160    5.7595 H   0  0  0  0  0  0  0  0  0  0  0  0
   29.4919   14.3228    3.8932 H   0  0  0  0  0  0  0  0  0  0  0  0
   27.2313   15.6219    2.3792 H   0  0  0  0  0  0  0  0  0  0  0  0
   24.9378   16.6919    3.2385 H   0  0  0  0  0  0  0  0  0  0  0  0
   24.9161   16.4529    5.8325 H   0  0  0  0  0  0  0  0  0  0  0  0
   24.7378   14.3771    7.5946 H   0  0  0  0  0  0  0  0  0  0  0  0
   23.4306   14.8983    9.6700 H   0  0  0  0  0  0  0  0  0  0  0  0
   28.0849   16.7161    9.0870 H   0  0  0  0  0  0  0  0  0  0  0  0
   27.6012   17.0607   12.0179 H   0  0  0  0  0  0  0  0  0  0  0  0
   26.9023   18.4750   11.2635 H   0  0  0  0  0  0  0  0  0  0  0  0
   24.2402   18.2576   13.6449 H   0  0  0  0  0  0  0  0  0  0  0  0
   27.0035   19.4648   13.2564 H   0  0  0  0  0  0  0  0  0  0  0  0
   25.4719   20.0124   12.4961 H   0  0  0  0  0  0  0  0  0  0  0  0
   26.0669   21.3523   14.5156 H   0  0  0  0  0  0  0  0  0  0  0  0
   24.5044   20.4585   14.7023 H   0  0  0  0  0  0  0  0  0  0  0  0
   26.5986   17.8907   16.6979 H   0  0  0  0  0  0  0  0  0  0  0  0
   29.8157    9.7686    7.8686 H   0  0  0  0  0  0  0  0  0  0  0  0
  1  2  1  0
  2  3  1  0
  3  4  2  0
  4  5  1  0
  5  6  1  0
  6  7  2  0
  6  8  2  0
  6  9  1  0
  9 10  1  0
 10 11  2  0
 11 12  1  0
 12 13  1  0
 13 14  2  0
 14 15  1  0
 15 16  1  0
 16 17  1  0
 17 18  1  0
 18 19  2  0
 19 20  1  0
 20 21  2  0
 21 22  1  0
 22 23  2  0
 22 24  1  0
 24 25  1  0
 25 26  1  0
 26 27  1  0
 27 28  1  0
 28 29  1  0
 29 30  2  0
 29 31  1  0
 31 32  1  0
 32 33  2  0
 25 34  1  0
 34 35  2  0
 17 36  2  0
  5 37  1  0
 37 38  2  0
 38  3  1  0
 36 10  1  0
 16 12  2  0
 23 18  1  0
 32 26  1  0
 34 21  1  0
  1 39  1  0
  1 40  1  0
  1 41  1  0
  2 42  1  0
  2 43  1  0
  4 44  1  0
 11 45  1  0
 13 46  1  0
 14 47  1  0
 15 48  1  0
 19 49  1  0
 20 50  1  0
 23 51  1  0
 24 52  1  0
 24 53  1  0
 26 54  1  1
 27 55  1  0
 27 56  1  0
 28 57  1  0
 28 58  1  0
 31 59  1  0
 37 60  1  0
M  END
>  <meeko>  (664) 
{"is_sidechain": [true], "free_energy": -11.8, "intermolecular_energy": 0.0, "internal_energy": -11.8, "cluster_size": 11, "cluster_id": 2, "rank_in_cluster": 1}

>  <_RMSD_MCS_to_ref>  (664) 
1.9770750058982003

$$$$
ligand
     RDKit          3D

 49 52  0  0  0  0  0  0  0  0999 V2000
   24.8710    9.6160    7.7820 C   0  0  0  0  0  0  0  0  0  0  0  0
   25.4240   10.9650    7.3490 C   0  0  0  0  0  0  0  0  0  0  0  0
   26.4580   11.4750    8.2890 C   0  0  0  0  0  0  0  0  0  0  0  0
   27.2340   12.6140    8.1910 C   0  0  0  0  0  0  0  0  0  0  0  0
   28.0010   12.5910    9.3210 N   0  0  0  0  0  0  0  0  0  0  0  0
   29.1490   13.7490    9.7500 S   0  0  0  0  0  6  0  0  0  0  0  0
   29.8310   13.2340   10.9250 O   0  0  0  0  0  0  0  0  0  0  0  0
   29.8890   13.9600    8.5160 O   0  0  0  0  0  0  0  0  0  0  0  0
   28.4030   15.1500   10.1060 O   0  0  0  0  0  0  0  0  0  0  0  0
   27.0370   15.2490   10.0210 C   0  0  0  0  0  0  0  0  0  0  0  0
   26.3850   15.7660   11.1300 C   0  0  0  0  0  0  0  0  0  0  0  0
   24.9890   15.9070   11.0390 C   0  0  0  0  0  0  0  0  0  0  0  0
   23.9670   16.3790   11.9340 C   0  0  0  0  0  0  0  0  0  0  0  0
   24.1650   16.8820   13.2950 C   0  0  0  0  0  0  0  0  0  0  0  0
   23.5740   16.4140   14.2640 O   0  0  0  0  0  0  0  0  0  0  0  0
   25.0470   17.9310   13.4160 N   0  0  0  0  0  0  0  0  0  0  0  0
   25.2140   18.6400   14.6750 C   0  0  1  0  0  0  0  0  0  0  0  0
   26.1870   17.9320   15.6130 C   0  0  0  0  0  0  0  0  0  0  0  0
   26.3490   18.7490   16.8850 C   0  0  0  0  0  0  0  0  0  0  0  0
   26.7890   20.1610   16.5790 C   0  0  0  0  0  0  0  0  0  0  0  0
   27.5360   20.7940   17.3180 O   0  0  0  0  0  0  0  0  0  0  0  0
   26.2870   20.7260   15.4340 N   0  0  0  0  0  0  0  0  0  0  0  0
   25.7500   20.0430   14.3710 C   0  0  0  0  0  0  0  0  0  0  0  0
   25.6990   20.5450   13.2480 O   0  0  0  0  0  0  0  0  0  0  0  0
   22.7690   16.2700   11.2410 C   0  0  0  0  0  0  0  0  0  0  0  0
   23.0260   15.7560    9.9970 N   0  0  0  0  0  0  0  0  0  0  0  0
   24.3720   15.5280    9.8480 C   0  0  0  0  0  0  0  0  0  0  0  0
   25.0870   15.0270    8.7690 C   0  0  0  0  0  0  0  0  0  0  0  0
   26.4280   14.8990    8.8730 N   0  0  0  0  0  0  0  0  0  0  0  0
   27.6920   11.4900   10.0520 C   0  0  0  0  0  0  0  0  0  0  0  0
   26.7540   10.7850    9.4510 N   0  0  0  0  0  0  0  0  0  0  0  0
   24.8497    9.5640    8.8806 H   0  0  0  0  0  0  0  0  0  0  0  0
   23.8507    9.4948    7.3893 H   0  0  0  0  0  0  0  0  0  0  0  0
   25.5127    8.8135    7.3893 H   0  0  0  0  0  0  0  0  0  0  0  0
   25.8735   10.8599    6.3506 H   0  0  0  0  0  0  0  0  0  0  0  0
   24.5918   11.6843    7.3389 H   0  0  0  0  0  0  0  0  0  0  0  0
   27.2341   13.3659    7.3881 H   0  0  0  0  0  0  0  0  0  0  0  0
   26.9344   16.0526   12.0389 H   0  0  0  0  0  0  0  0  0  0  0  0
   25.6010   18.2205   12.5974 H   0  0  0  0  0  0  0  0  0  0  0  0
   24.2366   18.6802   15.1781 H   0  0  0  0  0  0  0  0  0  0  0  0
   25.7946   16.9356   15.8645 H   0  0  0  0  0  0  0  0  0  0  0  0
   27.1635   17.8269   15.1176 H   0  0  0  0  0  0  0  0  0  0  0  0
   25.3858   18.7810   17.4152 H   0  0  0  0  0  0  0  0  0  0  0  0
   27.1207   18.2724   17.5074 H   0  0  0  0  0  0  0  0  0  0  0  0
   26.3155   21.7533   15.3659 H   0  0  0  0  0  0  0  0  0  0  0  0
   21.7776   16.5499   11.6267 H   0  0  0  0  0  0  0  0  0  0  0  0
   22.3130   15.5679    9.2779 H   0  0  0  0  0  0  0  0  0  0  0  0
   24.5693   14.7383    7.8424 H   0  0  0  0  0  0  0  0  0  0  0  0
   28.1589   11.2232   11.0116 H   0  0  0  0  0  0  0  0  0  0  0  0
  1  2  1  0
  2  3  1  0
  3  4  2  0
  4  5  1  0
  5  6  1  0
  6  7  2  0
  6  8  2  0
  6  9  1  0
  9 10  1  0
 10 11  2  0
 11 12  1  0
 12 13  1  0
 13 14  1  0
 14 15  2  0
 14 16  1  0
 16 17  1  0
 17 18  1  0
 18 19  1  0
 19 20  1  0
 20 21  2  0
 20 22  1  0
 22 23  1  0
 23 24  2  0
 13 25  2  0
 25 26  1  0
 26 27  1  0
 27 28  1  0
 28 29  2  0
  5 30  1  0
 30 31  2  0
 31  3  1  0
 29 10  1  0
 27 12  2  0
 23 17  1  0
  1 32  1  0
  1 33  1  0
  1 34  1  0
  2 35  1  0
  2 36  1  0
  4 37  1  0
 11 38  1  0
 16 39  1  0
 17 40  1  1
 18 41  1  0
 18 42  1  0
 19 43  1  0
 19 44  1  0
 22 45  1  0
 25 46  1  0
 26 47  1  0
 28 48  1  0
 30 49  1  0
M  END
>  <meeko>  (665) 
{"is_sidechain": [true], "free_energy": -11.8, "intermolecular_energy": 0.0, "internal_energy": -11.8, "cluster_size": 17, "cluster_id": 1, "rank_in_cluster": 1}

>  <_RMSD_MCS_to_ref>  (665) 
0.7182552161700996

$$$$
ligand
     RDKit          3D

 57 61  0  0  0  0  0  0  0  0999 V2000
   24.8540    9.4020    7.6050 C   0  0  0  0  0  0  0  0  0  0  0  0
   25.5230   10.7550    7.4270 C   0  0  0  0  0  0  0  0  0  0  0  0
   25.1200   11.4260    6.1600 C   0  0  0  0  0  0  0  0  0  0  0  0
   25.9160   11.9580    5.1650 C   0  0  0  0  0  0  0  0  0  0  0  0
   25.0270   12.4440    4.2490 N   0  0  0  0  0  0  0  0  0  0  0  0
   25.3870   13.3390    2.8730 S   0  0  0  0  0  6  0  0  0  0  0  0
   26.0530   12.4380    1.9550 O   0  0  0  0  0  0  0  0  0  0  0  0
   24.1430   14.0050    2.5340 O   0  0  0  0  0  0  0  0  0  0  0  0
   26.5390   14.5630    3.3820 C   0  0  0  0  0  0  0  0  0  0  0  0
   27.5450   14.9860    2.4930 C   0  0  0  0  0  0  0  0  0  0  0  0
   28.4680   15.9690    2.8700 C   0  0  0  0  0  0  0  0  0  0  0  0
   28.4240   16.5580    4.1390 C   0  0  0  0  0  0  0  0  0  0  0  0
   27.4190   16.1040    4.9850 C   0  0  0  0  0  0  0  0  0  0  0  0
   27.1730   16.5180    6.2610 O   0  0  0  0  0  0  0  0  0  0  0  0
   26.0940   15.7670    6.6480 C   0  0  0  0  0  0  0  0  0  0  0  0
   25.5320   15.9240    7.9860 C   0  0  0  0  0  0  0  0  0  0  0  0
   24.5280   15.3290    8.3660 O   0  0  0  0  0  0  0  0  0  0  0  0
   26.2670   16.8260    8.7440 N   0  0  0  0  0  0  0  0  0  0  0  0
   26.0580   17.2290   10.0750 C   0  0  0  0  0  0  0  0  0  0  0  0
   25.0670   16.7080   10.9030 C   0  0  0  0  0  0  0  0  0  0  0  0
   24.9330   17.1570   12.2220 C   0  0  0  0  0  0  0  0  0  0  0  0
   25.7880   18.1410   12.7390 C   0  0  0  0  0  0  0  0  0  0  0  0
   25.6470   18.6510   14.1630 C   0  0  1  0  0  0  0  0  0  0  0  0
   26.6820   17.9880   15.0800 C   0  0  0  0  0  0  0  0  0  0  0  0
   26.4950   18.4800   16.5060 C   0  0  0  0  0  0  0  0  0  0  0  0
   26.5960   19.9840   16.5770 C   0  0  0  0  0  0  0  0  0  0  0  0
   26.9030   20.5720   17.6090 O   0  0  0  0  0  0  0  0  0  0  0  0
   26.2520   20.6730   15.4420 N   0  0  0  0  0  0  0  0  0  0  0  0
   25.7340   20.1740   14.2690 C   0  0  0  0  0  0  0  0  0  0  0  0
   25.3140   20.9460   13.4100 O   0  0  0  0  0  0  0  0  0  0  0  0
   26.7830   18.6630   11.9020 C   0  0  0  0  0  0  0  0  0  0  0  0
   26.9150   18.2100   10.5850 C   0  0  0  0  0  0  0  0  0  0  0  0
   25.6480   14.9240    5.7260 N   0  0  0  0  0  0  0  0  0  0  0  0
   26.4840   15.1330    4.6580 C   0  0  0  0  0  0  0  0  0  0  0  0
   23.7640   12.2070    4.6840 C   0  0  0  0  0  0  0  0  0  0  0  0
   23.7840   11.5870    5.8460 N   0  0  0  0  0  0  0  0  0  0  0  0
   24.7464    9.1845    8.6779 H   0  0  0  0  0  0  0  0  0  0  0  0
   23.8606    9.4192    7.1330 H   0  0  0  0  0  0  0  0  0  0  0  0
   25.4708    8.6230    7.1330 H   0  0  0  0  0  0  0  0  0  0  0  0
   25.2443   11.4008    8.2727 H   0  0  0  0  0  0  0  0  0  0  0  0
   26.6097   10.5889    7.3873 H   0  0  0  0  0  0  0  0  0  0  0  0
   27.0148   11.9844    5.1203 H   0  0  0  0  0  0  0  0  0  0  0  0
   27.6068   14.5388    1.4899 H   0  0  0  0  0  0  0  0  0  0  0  0
   29.2424   16.2844    2.1553 H   0  0  0  0  0  0  0  0  0  0  0  0
   29.1410   17.3329    4.4479 H   0  0  0  0  0  0  0  0  0  0  0  0
   27.0723   17.2572    8.2681 H   0  0  0  0  0  0  0  0  0  0  0  0
   24.3837   15.9371   10.5173 H   0  0  0  0  0  0  0  0  0  0  0  0
   24.1458   16.7320   12.8621 H   0  0  0  0  0  0  0  0  0  0  0  0
   24.6359   18.3716   14.4942 H   0  0  0  0  0  0  0  0  0  0  0  0
   26.5506   16.8963   15.0500 H   0  0  0  0  0  0  0  0  0  0  0  0
   27.6935   18.2487   14.7350 H   0  0  0  0  0  0  0  0  0  0  0  0
   25.5036   18.1687   16.8668 H   0  0  0  0  0  0  0  0  0  0  0  0
   27.2874   18.0456   17.1332 H   0  0  0  0  0  0  0  0  0  0  0  0
   26.4000   21.6919   15.4714 H   0  0  0  0  0  0  0  0  0  0  0  0
   27.4664   19.4358   12.2838 H   0  0  0  0  0  0  0  0  0  0  0  0
   27.7026   18.6305    9.9424 H   0  0  0  0  0  0  0  0  0  0  0  0
   22.8505   12.4928    4.1419 H   0  0  0  0  0  0  0  0  0  0  0  0
  1  2  1  0
  2  3  1  0
  3  4  2  0
  4  5  1  0
  5  6  1  0
  6  7  2  0
  6  8  2  0
  6  9  1  0
  9 10  2  0
 10 11  1  0
 11 12  2  0
 12 13  1  0
 13 14  1  0
 14 15  1  0
 15 16  1  0
 16 17  2  0
 16 18  1  0
 18 19  1  0
 19 20  2  0
 20 21  1  0
 21 22  2  0
 22 23  1  0
 23 24  1  0
 24 25  1  0
 25 26  1  0
 26 27  2  0
 26 28  1  0
 28 29  1  0
 29 30  2  0
 22 31  1  0
 31 32  2  0
 15 33  2  0
 33 34  1  0
  5 35  1  0
 35 36  2  0
 36  3  1  0
 34  9  1  0
 34 13  2  0
 32 19  1  0
 29 23  1  0
  1 37  1  0
  1 38  1  0
  1 39  1  0
  2 40  1  0
  2 41  1  0
  4 42  1  0
 10 43  1  0
 11 44  1  0
 12 45  1  0
 18 46  1  0
 20 47  1  0
 21 48  1  0
 23 49  1  1
 24 50  1  0
 24 51  1  0
 25 52  1  0
 25 53  1  0
 28 54  1  0
 31 55  1  0
 32 56  1  0
 35 57  1  0
M  END
>  <meeko>  (666) 
{"is_sidechain": [true], "free_energy": -11.79, "intermolecular_energy": 0.0, "internal_energy": -11.79, "cluster_size": 13, "cluster_id": 1, "rank_in_cluster": 1}

>  <_RMSD_MCS_to_ref>  (666) 
0.7403240000162085

$$$$
ligand
     RDKit          3D

 54 58  0  0  0  0  0  0  0  0999 V2000
   24.8710    9.6160    7.7820 C   0  0  0  0  0  0  0  0  0  0  0  0
   25.4240   10.9650    7.3490 C   0  0  0  0  0  0  0  0  0  0  0  0
   26.5770   11.3950    8.1850 C   0  0  0  0  0  0  0  0  0  0  0  0
   27.7280   12.0560    7.8040 C   0  0  0  0  0  0  0  0  0  0  0  0
   28.4410   12.1790    8.9620 N   0  0  0  0  0  0  0  0  0  0  0  0
   29.9040   12.9990    9.1270 S   0  0  0  0  0  6  0  0  0  0  0  0
   30.0950   13.2000   10.5520 O   0  0  0  0  0  0  0  0  0  0  0  0
   30.8400   12.1900    8.3670 O   0  0  0  0  0  0  0  0  0  0  0  0
   29.7800   14.4370    8.3730 O   0  0  0  0  0  0  0  0  0  0  0  0
   28.9370   14.6780    7.3780 C   0  0  0  0  0  0  0  0  0  0  0  0
   29.4170   14.5190    6.1150 O   0  0  0  0  0  0  0  0  0  0  0  0
   28.4170   14.8500    5.2620 C   0  0  0  0  0  0  0  0  0  0  0  0
   27.2940   15.2220    5.9630 C   0  0  0  0  0  0  0  0  0  0  0  0
   27.6200   15.1000    7.3440 C   0  0  0  0  0  0  0  0  0  0  0  0
   26.8050   15.3880    8.5140 C   0  0  0  0  0  0  0  0  0  0  0  0
   25.6670   14.6060    8.8210 C   0  0  0  0  0  0  0  0  0  0  0  0
   24.8730   14.8740    9.9460 C   0  0  0  0  0  0  0  0  0  0  0  0
   25.2270   15.9370   10.7530 C   0  0  0  0  0  0  0  0  0  0  0  0
   26.3430   16.7100   10.4420 C   0  0  0  0  0  0  0  0  0  0  0  0
   27.1450   16.4660    9.3420 C   0  0  0  0  0  0  0  0  0  0  0  0
   26.4760   17.7530   11.4630 C   0  0  0  0  0  0  0  0  0  0  0  0
   27.3780   18.5650   11.5170 O   0  0  0  0  0  0  0  0  0  0  0  0
   25.3920   17.6180   12.3180 N   0  0  0  0  0  0  0  0  0  0  0  0
   25.3300   18.3180   13.5960 C   0  0  1  0  0  0  0  0  0  0  0  0
   26.3200   17.7630   14.6160 C   0  0  0  0  0  0  0  0  0  0  0  0
   26.1340   18.4820   15.9430 C   0  0  0  0  0  0  0  0  0  0  0  0
   26.2730   19.9780   15.7780 C   0  0  0  0  0  0  0  0  0  0  0  0
   26.7870   20.6890   16.6350 O   0  0  0  0  0  0  0  0  0  0  0  0
   25.7750   20.5150   14.6170 N   0  0  0  0  0  0  0  0  0  0  0  0
   25.5670   19.8300   13.4410 C   0  0  0  0  0  0  0  0  0  0  0  0
   25.5870   20.4250   12.3660 O   0  0  0  0  0  0  0  0  0  0  0  0
   24.5920   16.4390   12.0080 C   0  0  0  0  0  0  0  0  0  0  0  0
   27.7290   11.6440    9.9860 C   0  0  0  0  0  0  0  0  0  0  0  0
   26.5900   11.1480    9.5440 N   0  0  0  0  0  0  0  0  0  0  0  0
   24.8497    9.5640    8.8806 H   0  0  0  0  0  0  0  0  0  0  0  0
   23.8507    9.4948    7.3893 H   0  0  0  0  0  0  0  0  0  0  0  0
   25.5127    8.8135    7.3893 H   0  0  0  0  0  0  0  0  0  0  0  0
   25.7531   10.8932    6.3018 H   0  0  0  0  0  0  0  0  0  0  0  0
   24.6245   11.7112    7.4675 H   0  0  0  0  0  0  0  0  0  0  0  0
   28.0066   12.4037    6.7983 H   0  0  0  0  0  0  0  0  0  0  0  0
   28.4930   14.8247    4.1649 H   0  0  0  0  0  0  0  0  0  0  0  0
   26.3327   15.5495    5.5402 H   0  0  0  0  0  0  0  0  0  0  0  0
   25.3982   13.7675    8.1617 H   0  0  0  0  0  0  0  0  0  0  0  0
   23.9938   14.2552   10.1785 H   0  0  0  0  0  0  0  0  0  0  0  0
   28.0197   17.0965    9.1246 H   0  0  0  0  0  0  0  0  0  0  0  0
   24.3088   18.1498   13.9688 H   0  0  0  0  0  0  0  0  0  0  0  0
   26.1406   16.6865   14.7535 H   0  0  0  0  0  0  0  0  0  0  0  0
   27.3469   17.9192   14.2541 H   0  0  0  0  0  0  0  0  0  0  0  0
   25.1319   18.2559   16.3363 H   0  0  0  0  0  0  0  0  0  0  0  0
   26.9113   18.1346   16.6395 H   0  0  0  0  0  0  0  0  0  0  0  0
   25.5363   21.5169   14.6265 H   0  0  0  0  0  0  0  0  0  0  0  0
   24.6572   15.6918   12.8127 H   0  0  0  0  0  0  0  0  0  0  0  0
   23.5186   16.6539   11.9002 H   0  0  0  0  0  0  0  0  0  0  0  0
   28.0558   11.6266   11.0362 H   0  0  0  0  0  0  0  0  0  0  0  0
  1  2  1  0
  2  3  1  0
  3  4  2  0
  4  5  1  0
  5  6  1  0
  6  7  2  0
  6  8  2  0
  6  9  1  0
  9 10  1  0
 10 11  1  0
 11 12  1  0
 12 13  2  0
 13 14  1  0
 14 15  1  0
 15 16  2  0
 16 17  1  0
 17 18  2  0
 18 19  1  0
 19 20  2  0
 19 21  1  0
 21 22  2  0
 21 23  1  0
 23 24  1  0
 24 25  1  0
 25 26  1  0
 26 27  1  0
 27 28  2  0
 27 29  1  0
 29 30  1  0
 30 31  2  0
 23 32  1  0
  5 33  1  0
 33 34  2  0
 34  3  1  0
 14 10  2  0
 20 15  1  0
 30 24  1  0
 32 18  1  0
  1 35  1  0
  1 36  1  0
  1 37  1  0
  2 38  1  0
  2 39  1  0
  4 40  1  0
 12 41  1  0
 13 42  1  0
 16 43  1  0
 17 44  1  0
 20 45  1  0
 24 46  1  1
 25 47  1  0
 25 48  1  0
 26 49  1  0
 26 50  1  0
 29 51  1  0
 32 52  1  0
 32 53  1  0
 33 54  1  0
M  END
>  <meeko>  (667) 
{"is_sidechain": [true], "free_energy": -11.79, "intermolecular_energy": 0.0, "internal_energy": -11.79, "cluster_size": 9, "cluster_id": 1, "rank_in_cluster": 1}

>  <_RMSD_MCS_to_ref>  (667) 
1.3305580909277632

$$$$
ligand
     RDKit          3D

 53 57  0  0  0  0  0  0  0  0999 V2000
   24.8540    9.4020    7.6050 C   0  0  0  0  0  0  0  0  0  0  0  0
   25.5230   10.7550    7.4270 C   0  0  0  0  0  0  0  0  0  0  0  0
   24.9600   11.5140    6.2770 C   0  0  0  0  0  0  0  0  0  0  0  0
   24.8930   12.8800    6.0840 C   0  0  0  0  0  0  0  0  0  0  0  0
   24.2510   13.0170    4.8860 N   0  0  0  0  0  0  0  0  0  0  0  0
   24.1070   14.4470    4.0110 S   0  0  0  0  0  6  0  0  0  0  0  0
   25.1290   14.3760    2.9860 O   0  0  0  0  0  0  0  0  0  0  0  0
   22.6990   14.5480    3.6640 O   0  0  0  0  0  0  0  0  0  0  0  0
   24.4810   15.6600    5.0420 O   0  0  0  0  0  0  0  0  0  0  0  0
   25.7370   16.0040    5.3410 C   0  0  0  0  0  0  0  0  0  0  0  0
   26.7550   16.1100    4.4220 N   0  0  0  0  0  0  0  0  0  0  0  0
   27.9150   16.4490    4.9990 N   0  0  0  0  0  0  0  0  0  0  0  0
   27.6840   16.5900    6.2960 N   0  0  0  0  0  0  0  0  0  0  0  0
   26.3540   16.3400    6.5340 C   0  0  0  0  0  0  0  0  0  0  0  0
   25.7680   16.4030    7.8630 C   0  0  0  0  0  0  0  0  0  0  0  0
   24.5070   15.8280    8.1540 C   0  0  0  0  0  0  0  0  0  0  0  0
   23.9550   15.8970    9.4380 C   0  0  0  0  0  0  0  0  0  0  0  0
   24.6860   16.5520   10.4100 C   0  0  0  0  0  0  0  0  0  0  0  0
   25.9220   17.1370   10.1530 C   0  0  0  0  0  0  0  0  0  0  0  0
   26.4740   17.0720    8.8830 C   0  0  0  0  0  0  0  0  0  0  0  0
   26.4460   17.7900   11.3880 C   0  0  0  0  0  0  0  0  0  0  0  0
   25.4420   17.4340   12.3840 N   0  0  0  0  0  0  0  0  0  0  0  0
   25.3700   18.0450   13.7060 C   0  0  1  0  0  0  0  0  0  0  0  0
   26.3000   17.3730   14.7120 C   0  0  0  0  0  0  0  0  0  0  0  0
   26.1010   18.0040   16.0820 C   0  0  0  0  0  0  0  0  0  0  0  0
   26.3130   19.5000   16.0300 C   0  0  0  0  0  0  0  0  0  0  0  0
   26.8220   20.1240   16.9560 O   0  0  0  0  0  0  0  0  0  0  0  0
   25.8880   20.1400   14.8940 N   0  0  0  0  0  0  0  0  0  0  0  0
   25.6810   19.5510   13.6670 C   0  0  0  0  0  0  0  0  0  0  0  0
   25.7560   20.2200   12.6390 O   0  0  0  0  0  0  0  0  0  0  0  0
   24.3570   16.7790   11.8210 C   0  0  0  0  0  0  0  0  0  0  0  0
   23.3200   16.4420   12.3600 O   0  0  0  0  0  0  0  0  0  0  0  0
   24.0270   11.7870    4.3570 C   0  0  0  0  0  0  0  0  0  0  0  0
   24.4240   10.8490    5.1910 N   0  0  0  0  0  0  0  0  0  0  0  0
   24.7464    9.1845    8.6779 H   0  0  0  0  0  0  0  0  0  0  0  0
   23.8606    9.4192    7.1330 H   0  0  0  0  0  0  0  0  0  0  0  0
   25.4708    8.6230    7.1330 H   0  0  0  0  0  0  0  0  0  0  0  0
   25.3797   11.3444    8.3446 H   0  0  0  0  0  0  0  0  0  0  0  0
   26.5902   10.5800    7.2260 H   0  0  0  0  0  0  0  0  0  0  0  0
   25.2702   13.6753    6.7437 H   0  0  0  0  0  0  0  0  0  0  0  0
   26.6390   15.9481    3.4114 H   0  0  0  0  0  0  0  0  0  0  0  0
   23.9503   15.3169    7.3547 H   0  0  0  0  0  0  0  0  0  0  0  0
   22.9771   15.4472    9.6645 H   0  0  0  0  0  0  0  0  0  0  0  0
   27.4493   17.5360    8.6743 H   0  0  0  0  0  0  0  0  0  0  0  0
   27.4344   17.3910   11.6598 H   0  0  0  0  0  0  0  0  0  0  0  0
   26.5926   18.8750   11.2817 H   0  0  0  0  0  0  0  0  0  0  0  0
   24.3304   17.9006   14.0353 H   0  0  0  0  0  0  0  0  0  0  0  0
   26.0688   16.2989   14.7653 H   0  0  0  0  0  0  0  0  0  0  0  0
   27.3445   17.5063   14.3937 H   0  0  0  0  0  0  0  0  0  0  0  0
   25.0768   17.7984   16.4266 H   0  0  0  0  0  0  0  0  0  0  0  0
   26.8373   17.5714   16.7754 H   0  0  0  0  0  0  0  0  0  0  0  0
   25.7076   21.1516   14.9651 H   0  0  0  0  0  0  0  0  0  0  0  0
   23.5772   11.6004    3.3706 H   0  0  0  0  0  0  0  0  0  0  0  0
  1  2  1  0
  2  3  1  0
  3  4  2  0
  4  5  1  0
  5  6  1  0
  6  7  2  0
  6  8  2  0
  6  9  1  0
  9 10  1  0
 10 11  1  0
 11 12  1  0
 12 13  2  0
 13 14  1  0
 14 15  1  0
 15 16  2  0
 16 17  1  0
 17 18  2  0
 18 19  1  0
 19 20  2  0
 19 21  1  0
 21 22  1  0
 22 23  1  0
 23 24  1  0
 24 25  1  0
 25 26  1  0
 26 27  2  0
 26 28  1  0
 28 29  1  0
 29 30  2  0
 22 31  1  0
 31 32  2  0
  5 33  1  0
 33 34  2  0
 34  3  1  0
 14 10  2  0
 20 15  1  0
 29 23  1  0
 31 18  1  0
  1 35  1  0
  1 36  1  0
  1 37  1  0
  2 38  1  0
  2 39  1  0
  4 40  1  0
 11 41  1  0
 16 42  1  0
 17 43  1  0
 20 44  1  0
 21 45  1  0
 21 46  1  0
 23 47  1  1
 24 48  1  0
 24 49  1  0
 25 50  1  0
 25 51  1  0
 28 52  1  0
 33 53  1  0
M  END
>  <meeko>  (668) 
{"is_sidechain": [true], "free_energy": -11.78, "intermolecular_energy": 0.0, "internal_energy": -11.78, "cluster_size": 10, "cluster_id": 1, "rank_in_cluster": 1}

>  <_RMSD_MCS_to_ref>  (668) 
1.0669406418978205

$$$$
ligand
     RDKit          3D

 60 65  0  0  0  0  0  0  0  0999 V2000
   24.8710    9.6160    7.7820 C   0  0  0  0  0  0  0  0  0  0  0  0
   25.4240   10.9650    7.3490 C   0  0  0  0  0  0  0  0  0  0  0  0
   26.5870   11.3880    8.1750 C   0  0  0  0  0  0  0  0  0  0  0  0
   27.7380   12.0390    7.7780 C   0  0  0  0  0  0  0  0  0  0  0  0
   28.4700   12.1500    8.9240 N   0  0  0  0  0  0  0  0  0  0  0  0
   29.9140   13.0030    9.0880 S   0  0  0  0  0  6  0  0  0  0  0  0
   30.1580   13.0530   10.5190 O   0  0  0  0  0  0  0  0  0  0  0  0
   30.8370   12.3240    8.1970 O   0  0  0  0  0  0  0  0  0  0  0  0
   29.6410   14.5010    8.4880 O   0  0  0  0  0  0  0  0  0  0  0  0
   29.0230   14.6290    7.2660 C   0  0  0  0  0  0  0  0  0  0  0  0
   29.7590   14.3170    6.1180 C   0  0  0  0  0  0  0  0  0  0  0  0
   29.1790   14.4280    4.8500 C   0  0  0  0  0  0  0  0  0  0  0  0
   27.8420   14.8460    4.7540 C   0  0  0  0  0  0  0  0  0  0  0  0
   26.9350   15.0730    3.6850 C   0  0  0  0  0  0  0  0  0  0  0  0
   25.7490   15.4650    4.2580 C   0  0  0  0  0  0  0  0  0  0  0  0
   25.8600   15.4990    5.6090 O   0  0  0  0  0  0  0  0  0  0  0  0
   27.1380   15.1250    5.9230 C   0  0  0  0  0  0  0  0  0  0  0  0
   27.6700   15.0240    7.2200 C   0  0  0  0  0  0  0  0  0  0  0  0
   26.8550   15.3070    8.4070 C   0  0  0  0  0  0  0  0  0  0  0  0
   25.6280   14.6300    8.6230 C   0  0  0  0  0  0  0  0  0  0  0  0
   24.8240   14.8860    9.7420 C   0  0  0  0  0  0  0  0  0  0  0  0
   25.2630   15.8200   10.6590 C   0  0  0  0  0  0  0  0  0  0  0  0
   26.4670   16.4860   10.4520 C   0  0  0  0  0  0  0  0  0  0  0  0
   27.2730   16.2590    9.3520 C   0  0  0  0  0  0  0  0  0  0  0  0
   26.6880   17.3910   11.5850 C   0  0  0  0  0  0  0  0  0  0  0  0
   27.6130   18.1730   11.6770 O   0  0  0  0  0  0  0  0  0  0  0  0
   25.6550   17.1670   12.4810 N   0  0  0  0  0  0  0  0  0  0  0  0
   25.4270   17.9350   13.7000 C   0  0  1  0  0  0  0  0  0  0  0  0
   26.1720   17.3800   14.9140 C   0  0  0  0  0  0  0  0  0  0  0  0
   25.8250   18.2080   16.1420 C   0  0  0  0  0  0  0  0  0  0  0  0
   26.1410   19.6690   15.9250 C   0  0  0  0  0  0  0  0  0  0  0  0
   26.3400   20.4410   16.8590 O   0  0  0  0  0  0  0  0  0  0  0  0
   26.1130   20.1200   14.6290 N   0  0  0  0  0  0  0  0  0  0  0  0
   25.7510   19.4230   13.4990 C   0  0  0  0  0  0  0  0  0  0  0  0
   25.6020   20.0120   12.4300 O   0  0  0  0  0  0  0  0  0  0  0  0
   24.6340   16.2870   11.9280 C   0  0  0  0  0  0  0  0  0  0  0  0
   27.7550   11.6450    9.9620 C   0  0  0  0  0  0  0  0  0  0  0  0
   26.6090   11.1530    9.5370 N   0  0  0  0  0  0  0  0  0  0  0  0
   24.8497    9.5640    8.8806 H   0  0  0  0  0  0  0  0  0  0  0  0
   23.8507    9.4948    7.3893 H   0  0  0  0  0  0  0  0  0  0  0  0
   25.5127    8.8135    7.3893 H   0  0  0  0  0  0  0  0  0  0  0  0
   25.7422   10.8965    6.2983 H   0  0  0  0  0  0  0  0  0  0  0  0
   24.6282   11.7132    7.4788 H   0  0  0  0  0  0  0  0  0  0  0  0
   28.0038   12.3881    6.7693 H   0  0  0  0  0  0  0  0  0  0  0  0
   30.8023   13.9817    6.2132 H   0  0  0  0  0  0  0  0  0  0  0  0
   29.7591   14.1924    3.9456 H   0  0  0  0  0  0  0  0  0  0  0  0
   27.1411   14.9578    2.6106 H   0  0  0  0  0  0  0  0  0  0  0  0
   24.8361   15.7164    3.6982 H   0  0  0  0  0  0  0  0  0  0  0  0
   25.2968   13.8804    7.8893 H   0  0  0  0  0  0  0  0  0  0  0  0
   23.8700   14.3576    9.8856 H   0  0  0  0  0  0  0  0  0  0  0  0
   28.2164   16.8090    9.2201 H   0  0  0  0  0  0  0  0  0  0  0  0
   24.3531   17.8355   13.9166 H   0  0  0  0  0  0  0  0  0  0  0  0
   25.8745   16.3342   15.0805 H   0  0  0  0  0  0  0  0  0  0  0  0
   27.2560   17.4277   14.7331 H   0  0  0  0  0  0  0  0  0  0  0  0
   24.7510   18.1013   16.3546 H   0  0  0  0  0  0  0  0  0  0  0  0
   26.4268   17.8442   16.9879 H   0  0  0  0  0  0  0  0  0  0  0  0
   26.3976   21.0993   14.4846 H   0  0  0  0  0  0  0  0  0  0  0  0
   24.4279   15.4436   12.6034 H   0  0  0  0  0  0  0  0  0  0  0  0
   23.6626   16.7813   11.7798 H   0  0  0  0  0  0  0  0  0  0  0  0
   28.0862   11.6464   11.0110 H   0  0  0  0  0  0  0  0  0  0  0  0
  1  2  1  0
  2  3  1  0
  3  4  2  0
  4  5  1  0
  5  6  1  0
  6  7  2  0
  6  8  2  0
  6  9  1  0
  9 10  1  0
 10 11  2  0
 11 12  1  0
 12 13  2  0
 13 14  1  0
 14 15  2  0
 15 16  1  0
 16 17  1  0
 17 18  2  0
 18 19  1  0
 19 20  2  0
 20 21  1  0
 21 22  2  0
 22 23  1  0
 23 24  2  0
 23 25  1  0
 25 26  2  0
 25 27  1  0
 27 28  1  0
 28 29  1  0
 29 30  1  0
 30 31  1  0
 31 32  2  0
 31 33  1  0
 33 34  1  0
 34 35  2  0
 27 36  1  0
  5 37  1  0
 37 38  2  0
 38  3  1  0
 18 10  1  0
 24 19  1  0
 34 28  1  0
 17 13  1  0
 36 22  1  0
  1 39  1  0
  1 40  1  0
  1 41  1  0
  2 42  1  0
  2 43  1  0
  4 44  1  0
 11 45  1  0
 12 46  1  0
 14 47  1  0
 15 48  1  0
 20 49  1  0
 21 50  1  0
 24 51  1  0
 28 52  1  1
 29 53  1  0
 29 54  1  0
 30 55  1  0
 30 56  1  0
 33 57  1  0
 36 58  1  0
 36 59  1  0
 37 60  1  0
M  END
>  <meeko>  (669) 
{"is_sidechain": [true], "free_energy": -11.78, "intermolecular_energy": 0.0, "internal_energy": -11.78, "cluster_size": 7, "cluster_id": 1, "rank_in_cluster": 1}

>  <_RMSD_MCS_to_ref>  (669) 
1.3753468249459442

$$$$
ligand
     RDKit          3D

 60 65  0  0  0  0  0  0  0  0999 V2000
   24.8710    9.6160    7.7820 C   0  0  0  0  0  0  0  0  0  0  0  0
   25.4240   10.9650    7.3490 C   0  0  0  0  0  0  0  0  0  0  0  0
   25.3230   11.1680    5.8770 C   0  0  0  0  0  0  0  0  0  0  0  0
   26.3100   11.5230    4.9790 C   0  0  0  0  0  0  0  0  0  0  0  0
   25.6750   11.5330    3.7700 N   0  0  0  0  0  0  0  0  0  0  0  0
   26.3080   12.1400    2.3300 S   0  0  0  0  0  6  0  0  0  0  0  0
   27.7090   11.7650    2.3560 O   0  0  0  0  0  0  0  0  0  0  0  0
   25.4070   11.6600    1.3000 O   0  0  0  0  0  0  0  0  0  0  0  0
   26.1850   13.7630    2.4380 O   0  0  0  0  0  0  0  0  0  0  0  0
   26.2060   14.4600    3.6270 C   0  0  0  0  0  0  0  0  0  0  0  0
   27.1930   15.5370    3.6310 C   0  0  0  0  0  0  0  0  0  0  0  0
   27.3290   16.3060    4.7240 C   0  0  0  0  0  0  0  0  0  0  0  0
   26.5220   16.0580    5.8300 N   0  0  0  0  0  0  0  0  0  0  0  0
   26.4780   16.6980    7.0410 C   0  0  0  0  0  0  0  0  0  0  0  0
   25.5000   16.0510    7.7700 C   0  0  0  0  0  0  0  0  0  0  0  0
   25.0710   16.3620    9.1270 C   0  0  0  0  0  0  0  0  0  0  0  0
   23.7800   16.0210    9.5990 C   0  0  0  0  0  0  0  0  0  0  0  0
   23.3800   16.3290   10.9050 C   0  0  0  0  0  0  0  0  0  0  0  0
   24.2940   16.9730   11.7150 C   0  0  0  0  0  0  0  0  0  0  0  0
   25.5670   17.3230   11.2790 C   0  0  0  0  0  0  0  0  0  0  0  0
   25.9690   17.0230    9.9880 C   0  0  0  0  0  0  0  0  0  0  0  0
   26.3160   18.0120   12.3710 C   0  0  0  0  0  0  0  0  0  0  0  0
   25.3550   17.9900   13.4700 N   0  0  0  0  0  0  0  0  0  0  0  0
   25.5260   18.7300   14.7170 C   0  0  2  0  0  0  0  0  0  0  0  0
   26.2650   20.0460   14.4720 C   0  0  0  0  0  0  0  0  0  0  0  0
   26.3150   20.8560   15.7570 C   0  0  0  0  0  0  0  0  0  0  0  0
   26.9510   20.0670   16.8750 C   0  0  0  0  0  0  0  0  0  0  0  0
   27.5980   20.6000   17.7710 O   0  0  0  0  0  0  0  0  0  0  0  0
   26.7390   18.7110   16.8670 N   0  0  0  0  0  0  0  0  0  0  0  0
   26.2270   17.9510   15.8410 C   0  0  0  0  0  0  0  0  0  0  0  0
   26.3180   16.7250   15.8840 O   0  0  0  0  0  0  0  0  0  0  0  0
   24.1430   17.4290   13.1000 C   0  0  0  0  0  0  0  0  0  0  0  0
   23.1250   17.3470   13.7590 O   0  0  0  0  0  0  0  0  0  0  0  0
   24.9460   15.0280    7.0280 N   0  0  0  0  0  0  0  0  0  0  0  0
   25.5710   15.0480    5.8700 C   0  0  0  0  0  0  0  0  0  0  0  0
   25.4280   14.2320    4.7100 C   0  0  0  0  0  0  0  0  0  0  0  0
   24.3550   11.2760    3.9600 C   0  0  0  0  0  0  0  0  0  0  0  0
   24.1120   11.0260    5.2300 N   0  0  0  0  0  0  0  0  0  0  0  0
   24.8497    9.5640    8.8806 H   0  0  0  0  0  0  0  0  0  0  0  0
   23.8507    9.4948    7.3893 H   0  0  0  0  0  0  0  0  0  0  0  0
   25.5127    8.8135    7.3893 H   0  0  0  0  0  0  0  0  0  0  0  0
   24.8569   11.7596    7.8560 H   0  0  0  0  0  0  0  0  0  0  0  0
   26.4891   10.9968    7.6221 H   0  0  0  0  0  0  0  0  0  0  0  0
   27.3663   11.7466    5.1893 H   0  0  0  0  0  0  0  0  0  0  0  0
   27.8202   15.7169    2.7455 H   0  0  0  0  0  0  0  0  0  0  0  0
   28.0681   17.1205    4.7444 H   0  0  0  0  0  0  0  0  0  0  0  0
   27.0938   17.5500    7.3649 H   0  0  0  0  0  0  0  0  0  0  0  0
   23.0786   15.5046    8.9272 H   0  0  0  0  0  0  0  0  0  0  0  0
   22.3763   16.0679   11.2715 H   0  0  0  0  0  0  0  0  0  0  0  0
   26.9757   17.2971    9.6397 H   0  0  0  0  0  0  0  0  0  0  0  0
   27.2329   17.4635   12.6326 H   0  0  0  0  0  0  0  0  0  0  0  0
   26.6546   19.0235   12.1024 H   0  0  0  0  0  0  0  0  0  0  0  0
   24.5016   18.9207   15.0694 H   0  0  0  0  0  0  0  0  0  0  0  0
   27.2901   19.8319   14.1353 H   0  0  0  0  0  0  0  0  0  0  0  0
   25.7338   20.6223   13.7001 H   0  0  0  0  0  0  0  0  0  0  0  0
   26.9029   21.7693   15.5828 H   0  0  0  0  0  0  0  0  0  0  0  0
   25.2852   21.1077   16.0504 H   0  0  0  0  0  0  0  0  0  0  0  0
   26.9922   18.2046   17.7274 H   0  0  0  0  0  0  0  0  0  0  0  0
   24.6871   13.4191    4.6955 H   0  0  0  0  0  0  0  0  0  0  0  0
   23.5952   11.2766    3.1645 H   0  0  0  0  0  0  0  0  0  0  0  0
  1  2  1  0
  2  3  1  0
  3  4  2  0
  4  5  1  0
  5  6  1  0
  6  7  2  0
  6  8  2  0
  6  9  1  0
  9 10  1  0
 10 11  1  0
 11 12  2  0
 12 13  1  0
 13 14  1  0
 14 15  2  0
 15 16  1  0
 16 17  2  0
 17 18  1  0
 18 19  2  0
 19 20  1  0
 20 21  2  0
 20 22  1  0
 22 23  1  0
 23 24  1  0
 24 25  1  0
 25 26  1  0
 26 27  1  0
 27 28  2  0
 27 29  1  0
 29 30  1  0
 30 31  2  0
 23 32  1  0
 32 33  2  0
 15 34  1  0
 34 35  2  0
 35 36  1  0
  5 37  1  0
 37 38  2  0
 38  3  1  0
 36 10  2  0
 35 13  1  0
 21 16  1  0
 30 24  1  0
 32 19  1  0
  1 39  1  0
  1 40  1  0
  1 41  1  0
  2 42  1  0
  2 43  1  0
  4 44  1  0
 11 45  1  0
 12 46  1  0
 14 47  1  0
 17 48  1  0
 18 49  1  0
 21 50  1  0
 22 51  1  0
 22 52  1  0
 24 53  1  1
 25 54  1  0
 25 55  1  0
 26 56  1  0
 26 57  1  0
 29 58  1  0
 36 59  1  0
 37 60  1  0
M  END
>  <meeko>  (670) 
{"is_sidechain": [true], "free_energy": -11.78, "intermolecular_energy": 0.0, "internal_energy": -11.78, "cluster_size": 20, "cluster_id": 1, "rank_in_cluster": 1}

>  <_RMSD_MCS_to_ref>  (670) 
1.7464219210476575

$$$$
ligand
     RDKit          3D

 59 64  0  0  0  0  0  0  0  0999 V2000
   24.8710    9.6160    7.7820 C   0  0  0  0  0  0  0  0  0  0  0  0
   25.4240   10.9650    7.3490 C   0  0  0  0  0  0  0  0  0  0  0  0
   24.8970   11.3900    6.0240 C   0  0  0  0  0  0  0  0  0  0  0  0
   24.9550   12.6310    5.4220 C   0  0  0  0  0  0  0  0  0  0  0  0
   24.3370   12.4490    4.2180 N   0  0  0  0  0  0  0  0  0  0  0  0
   23.8860   13.6660    3.1590 S   0  0  0  0  0  6  0  0  0  0  0  0
   23.6870   13.0300    1.8720 O   0  0  0  0  0  0  0  0  0  0  0  0
   22.8510   14.4270    3.8290 O   0  0  0  0  0  0  0  0  0  0  0  0
   25.1610   14.7690    2.9160 C   0  0  0  0  0  0  0  0  0  0  0  0
   25.6090   15.2430    1.6700 C   0  0  0  0  0  0  0  0  0  0  0  0
   26.6260   16.1000    1.7920 N   0  0  0  0  0  0  0  0  0  0  0  0
   26.8260   16.1690    3.1210 N   0  0  0  0  0  0  0  0  0  0  0  0
   25.9690   15.3860    3.8450 C   0  0  0  0  0  0  0  0  0  0  0  0
   26.0220   15.3140    5.3800 C   0  0  0  0  0  0  0  0  0  0  0  0
   25.1940   15.9110    6.2950 C   0  0  0  0  0  0  0  0  0  0  0  0
   25.6870   15.5210    7.5200 N   0  0  0  0  0  0  0  0  0  0  0  0
   25.2150   15.8450    8.8210 C   0  0  0  0  0  0  0  0  0  0  0  0
   23.9550   15.3780    9.2670 C   0  0  0  0  0  0  0  0  0  0  0  0
   23.4900   15.6990   10.5480 C   0  0  0  0  0  0  0  0  0  0  0  0
   24.3040   16.4760   11.3480 C   0  0  0  0  0  0  0  0  0  0  0  0
   25.5440   16.9470   10.9290 C   0  0  0  0  0  0  0  0  0  0  0  0
   26.0170   16.6410    9.6630 C   0  0  0  0  0  0  0  0  0  0  0  0
   26.1630   17.7770   12.0030 C   0  0  0  0  0  0  0  0  0  0  0  0
   25.2180   17.6340   13.1020 N   0  0  0  0  0  0  0  0  0  0  0  0
   25.3180   18.4640   14.2990 C   0  0  2  0  0  0  0  0  0  0  0  0
   25.9490   19.8330   14.0480 C   0  0  0  0  0  0  0  0  0  0  0  0
   25.9470   20.6320   15.3410 C   0  0  0  0  0  0  0  0  0  0  0  0
   26.6660   19.8920   16.4450 C   0  0  0  0  0  0  0  0  0  0  0  0
   27.1530   20.4700   17.4120 O   0  0  0  0  0  0  0  0  0  0  0  0
   26.6780   18.5220   16.3610 N   0  0  0  0  0  0  0  0  0  0  0  0
   26.0600   17.7260   15.4250 C   0  0  0  0  0  0  0  0  0  0  0  0
   26.0330   16.5040   15.5690 O   0  0  0  0  0  0  0  0  0  0  0  0
   24.0700   16.9590   12.7130 C   0  0  0  0  0  0  0  0  0  0  0  0
   23.0410   16.7900   13.3380 O   0  0  0  0  0  0  0  0  0  0  0  0
   26.7670   14.7190    7.3350 N   0  0  0  0  0  0  0  0  0  0  0  0
   26.9760   14.5900    6.0320 N   0  0  0  0  0  0  0  0  0  0  0  0
   23.8860   11.1710    4.1370 C   0  0  0  0  0  0  0  0  0  0  0  0
   24.2180   10.4970    5.2170 N   0  0  0  0  0  0  0  0  0  0  0  0
   24.8497    9.5640    8.8806 H   0  0  0  0  0  0  0  0  0  0  0  0
   23.8507    9.4948    7.3893 H   0  0  0  0  0  0  0  0  0  0  0  0
   25.5127    8.8135    7.3893 H   0  0  0  0  0  0  0  0  0  0  0  0
   25.1454   11.7194    8.0995 H   0  0  0  0  0  0  0  0  0  0  0  0
   26.5165   10.8700    7.2630 H   0  0  0  0  0  0  0  0  0  0  0  0
   25.3979   13.5554    5.8211 H   0  0  0  0  0  0  0  0  0  0  0  0
   25.1722   14.9426    0.7062 H   0  0  0  0  0  0  0  0  0  0  0  0
   27.5548   16.7554    3.5520 H   0  0  0  0  0  0  0  0  0  0  0  0
   24.3275   16.5584    6.0948 H   0  0  0  0  0  0  0  0  0  0  0  0
   23.3363   14.7579    8.6016 H   0  0  0  0  0  0  0  0  0  0  0  0
   22.5114   15.3449   10.9043 H   0  0  0  0  0  0  0  0  0  0  0  0
   26.9957   17.0108    9.3232 H   0  0  0  0  0  0  0  0  0  0  0  0
   27.1552   17.3915   12.2802 H   0  0  0  0  0  0  0  0  0  0  0  0
   26.3312   18.8224   11.7048 H   0  0  0  0  0  0  0  0  0  0  0  0
   24.2817   18.6554   14.6143 H   0  0  0  0  0  0  0  0  0  0  0  0
   26.9838   19.7021   13.6986 H   0  0  0  0  0  0  0  0  0  0  0  0
   25.3706   20.3704   13.2820 H   0  0  0  0  0  0  0  0  0  0  0  0
   26.4503   21.5947   15.1681 H   0  0  0  0  0  0  0  0  0  0  0  0
   24.9032   20.7886   15.6507 H   0  0  0  0  0  0  0  0  0  0  0  0
   27.2159   18.0296   17.0883 H   0  0  0  0  0  0  0  0  0  0  0  0
   23.3223   10.7573    3.2878 H   0  0  0  0  0  0  0  0  0  0  0  0
  1  2  1  0
  2  3  1  0
  3  4  2  0
  4  5  1  0
  5  6  1  0
  6  7  2  0
  6  8  2  0
  6  9  1  0
  9 10  1  0
 10 11  2  0
 11 12  1  0
 12 13  1  0
 13 14  1  0
 14 15  2  0
 15 16  1  0
 16 17  1  0
 17 18  2  0
 18 19  1  0
 19 20  2  0
 20 21  1  0
 21 22  2  0
 21 23  1  0
 23 24  1  0
 24 25  1  0
 25 26  1  0
 26 27  1  0
 27 28  1  0
 28 29  2  0
 28 30  1  0
 30 31  1  0
 31 32  2  0
 24 33  1  0
 33 34  2  0
 16 35  1  0
 35 36  2  0
  5 37  1  0
 37 38  2  0
 38  3  1  0
 13  9  2  0
 36 14  1  0
 22 17  1  0
 31 25  1  0
 33 20  1  0
  1 39  1  0
  1 40  1  0
  1 41  1  0
  2 42  1  0
  2 43  1  0
  4 44  1  0
 10 45  1  0
 12 46  1  0
 15 47  1  0
 18 48  1  0
 19 49  1  0
 22 50  1  0
 23 51  1  0
 23 52  1  0
 25 53  1  1
 26 54  1  0
 26 55  1  0
 27 56  1  0
 27 57  1  0
 30 58  1  0
 37 59  1  0
M  END
>  <meeko>  (671) 
{"is_sidechain": [true], "free_energy": -11.78, "intermolecular_energy": 0.0, "internal_energy": -11.78, "cluster_size": 1, "cluster_id": 2, "rank_in_cluster": 1}

>  <_RMSD_MCS_to_ref>  (671) 
1.6488772105755953

$$$$
ligand
     RDKit          3D

 50 53  0  0  0  0  0  0  0  0999 V2000
   24.8710    9.6160    7.7820 C   0  0  0  0  0  0  0  0  0  0  0  0
   25.4240   10.9650    7.3490 C   0  0  0  0  0  0  0  0  0  0  0  0
   26.4410   11.4940    8.2990 C   0  0  0  0  0  0  0  0  0  0  0  0
   27.0360   12.7410    8.3170 C   0  0  0  0  0  0  0  0  0  0  0  0
   27.8830   12.6930    9.3840 N   0  0  0  0  0  0  0  0  0  0  0  0
   29.0120   13.8710    9.7980 S   0  0  0  0  0  6  0  0  0  0  0  0
   29.7790   14.1360    8.5970 O   0  0  0  0  0  0  0  0  0  0  0  0
   29.6230   13.3980   11.0250 O   0  0  0  0  0  0  0  0  0  0  0  0
   28.0390   15.3060   10.1580 C   0  0  0  0  0  0  0  0  0  0  0  0
   28.6150   16.5760   10.1160 C   0  0  0  0  0  0  0  0  0  0  0  0
   27.8430   17.6840   10.4670 C   0  0  0  0  0  0  0  0  0  0  0  0
   26.5140   17.5190   10.8730 C   0  0  0  0  0  0  0  0  0  0  0  0
   25.9290   16.2450   10.9060 C   0  0  0  0  0  0  0  0  0  0  0  0
   24.5680   16.0350   11.3990 C   0  0  0  0  0  0  0  0  0  0  0  0
   23.3280   15.4200   10.3800 S   0  0  0  0  0  0  0  0  0  0  0  0
   22.1940   15.3810   11.6030 N   0  0  0  0  0  0  0  0  0  0  0  0
   22.6700   15.8030   12.7610 N   0  0  0  0  0  0  0  0  0  0  0  0
   24.0070   16.1970   12.6660 C   0  0  0  0  0  0  0  0  0  0  0  0
   24.7110   16.7060   13.8420 C   0  0  0  0  0  0  0  0  0  0  0  0
   25.1060   15.9860   14.7530 O   0  0  0  0  0  0  0  0  0  0  0  0
   24.8530   18.0750   13.8740 N   0  0  0  0  0  0  0  0  0  0  0  0
   25.2200   18.7630   15.1040 C   0  0  1  0  0  0  0  0  0  0  0  0
   26.2830   18.0120   15.8980 C   0  0  0  0  0  0  0  0  0  0  0  0
   26.6300   18.8050   17.1490 C   0  0  0  0  0  0  0  0  0  0  0  0
   27.0830   20.2030   16.8010 C   0  0  0  0  0  0  0  0  0  0  0  0
   27.9380   20.7990   17.4480 O   0  0  0  0  0  0  0  0  0  0  0  0
   26.4680   20.7970   15.7280 N   0  0  0  0  0  0  0  0  0  0  0  0
   25.7430   20.1590   14.7530 C   0  0  0  0  0  0  0  0  0  0  0  0
   25.5170   20.7000   13.6710 O   0  0  0  0  0  0  0  0  0  0  0  0
   26.6970   15.1420   10.5070 C   0  0  0  0  0  0  0  0  0  0  0  0
   27.8080   11.4630    9.9570 C   0  0  0  0  0  0  0  0  0  0  0  0
   26.9350   10.7060    9.3230 N   0  0  0  0  0  0  0  0  0  0  0  0
   24.8497    9.5640    8.8806 H   0  0  0  0  0  0  0  0  0  0  0  0
   23.8507    9.4948    7.3893 H   0  0  0  0  0  0  0  0  0  0  0  0
   25.5127    8.8135    7.3893 H   0  0  0  0  0  0  0  0  0  0  0  0
   25.8898   10.8542    6.3587 H   0  0  0  0  0  0  0  0  0  0  0  0
   24.5866   11.6778    7.3236 H   0  0  0  0  0  0  0  0  0  0  0  0
   26.8651   13.5809    7.6275 H   0  0  0  0  0  0  0  0  0  0  0  0
   29.6641   16.7022    9.8102 H   0  0  0  0  0  0  0  0  0  0  0  0
   28.2812   18.6921   10.4244 H   0  0  0  0  0  0  0  0  0  0  0  0
   25.9222   18.3976   11.1693 H   0  0  0  0  0  0  0  0  0  0  0  0
   24.6973   18.6211   13.0147 H   0  0  0  0  0  0  0  0  0  0  0  0
   24.3215   18.8241   15.7356 H   0  0  0  0  0  0  0  0  0  0  0  0
   25.8967   17.0230   16.1853 H   0  0  0  0  0  0  0  0  0  0  0  0
   27.1841   17.8860   15.2799 H   0  0  0  0  0  0  0  0  0  0  0  0
   25.7406   18.8660   17.7934 H   0  0  0  0  0  0  0  0  0  0  0  0
   27.4519   18.2920   17.6699 H   0  0  0  0  0  0  0  0  0  0  0  0
   26.5592   21.8197   15.6464 H   0  0  0  0  0  0  0  0  0  0  0  0
   26.2400   14.1422   10.4687 H   0  0  0  0  0  0  0  0  0  0  0  0
   28.3954   11.1430   10.8303 H   0  0  0  0  0  0  0  0  0  0  0  0
  1  2  1  0
  2  3  1  0
  3  4  2  0
  4  5  1  0
  5  6  1  0
  6  7  2  0
  6  8  2  0
  6  9  1  0
  9 10  2  0
 10 11  1  0
 11 12  2  0
 12 13  1  0
 13 14  1  0
 14 15  1  0
 15 16  1  0
 16 17  2  0
 17 18  1  0
 18 19  1  0
 19 20  2  0
 19 21  1  0
 21 22  1  0
 22 23  1  0
 23 24  1  0
 24 25  1  0
 25 26  2  0
 25 27  1  0
 27 28  1  0
 28 29  2  0
 13 30  2  0
  5 31  1  0
 31 32  2  0
 32  3  1  0
 30  9  1  0
 18 14  2  0
 28 22  1  0
  1 33  1  0
  1 34  1  0
  1 35  1  0
  2 36  1  0
  2 37  1  0
  4 38  1  0
 10 39  1  0
 11 40  1  0
 12 41  1  0
 21 42  1  0
 22 43  1  1
 23 44  1  0
 23 45  1  0
 24 46  1  0
 24 47  1  0
 27 48  1  0
 30 49  1  0
 31 50  1  0
M  END
>  <meeko>  (672) 
{"is_sidechain": [true], "free_energy": -11.78, "intermolecular_energy": 0.0, "internal_energy": -11.78, "cluster_size": 5, "cluster_id": 1, "rank_in_cluster": 1}

>  <_RMSD_MCS_to_ref>  (672) 
0.9102611957259541

$$$$
ligand
     RDKit          3D

 56 60  0  0  0  0  0  0  0  0999 V2000
   24.8540    9.4020    7.6050 C   0  0  0  0  0  0  0  0  0  0  0  0
   25.5230   10.7550    7.4270 C   0  0  0  0  0  0  0  0  0  0  0  0
   24.9540   11.5190    6.2820 C   0  0  0  0  0  0  0  0  0  0  0  0
   25.3110   12.7670    5.8130 C   0  0  0  0  0  0  0  0  0  0  0  0
   24.4440   13.0010    4.7840 N   0  0  0  0  0  0  0  0  0  0  0  0
   24.4120   14.3540    3.7890 S   0  0  0  0  0  6  0  0  0  0  0  0
   25.3120   14.0130    2.6980 O   0  0  0  0  0  0  0  0  0  0  0  0
   23.0040   14.6380    3.5610 O   0  0  0  0  0  0  0  0  0  0  0  0
   25.1210   15.6430    4.7850 C   0  0  0  0  0  0  0  0  0  0  0  0
   25.3980   16.7940    4.1460 N   0  0  0  0  0  0  0  0  0  0  0  0
   25.8730   17.7690    4.9330 C   0  0  0  0  0  0  0  0  0  0  0  0
   26.0470   17.6240    6.2910 C   0  0  0  0  0  0  0  0  0  0  0  0
   25.7220   16.3950    6.8490 C   0  0  0  0  0  0  0  0  0  0  0  0
   25.8960   16.2420    8.2460 N   0  0  0  0  0  0  0  0  0  0  0  0
   24.8730   16.0170    9.1880 C   0  0  0  0  0  0  0  0  0  0  0  0
   23.7570   15.2300    8.8420 C   0  0  0  0  0  0  0  0  0  0  0  0
   22.7190   14.9700    9.7590 C   0  0  0  0  0  0  0  0  0  0  0  0
   22.7680   15.4990   11.0470 C   0  0  0  0  0  0  0  0  0  0  0  0
   23.8620   16.2780   11.3670 C   0  0  0  0  0  0  0  0  0  0  0  0
   24.9010   16.5380   10.4740 C   0  0  0  0  0  0  0  0  0  0  0  0
   25.9150   17.4120   11.1370 C   0  0  0  0  0  0  0  0  0  0  0  0
   25.3140   17.6980   12.4330 N   0  0  0  0  0  0  0  0  0  0  0  0
   26.0270   18.3420   13.5410 C   0  0  2  0  0  0  0  0  0  0  0  0
   25.7680   17.5920   14.8540 C   0  0  0  0  0  0  0  0  0  0  0  0
   26.6790   18.1310   15.9460 C   0  0  0  0  0  0  0  0  0  0  0  0
   26.5040   19.6180   16.1150 C   0  0  0  0  0  0  0  0  0  0  0  0
   26.5640   20.1700   17.2100 O   0  0  0  0  0  0  0  0  0  0  0  0
   26.2840   20.3420   14.9720 N   0  0  0  0  0  0  0  0  0  0  0  0
   25.7450   19.8410   13.8090 C   0  0  0  0  0  0  0  0  0  0  0  0
   25.0890   20.5860   13.0800 O   0  0  0  0  0  0  0  0  0  0  0  0
   24.1530   16.9660   12.6280 C   0  0  0  0  0  0  0  0  0  0  0  0
   23.4810   16.8690   13.6370 O   0  0  0  0  0  0  0  0  0  0  0  0
   25.2610   15.3800    6.0990 N   0  0  0  0  0  0  0  0  0  0  0  0
   23.6460   11.9140    4.6210 C   0  0  0  0  0  0  0  0  0  0  0  0
   23.9280   10.9920    5.5200 N   0  0  0  0  0  0  0  0  0  0  0  0
   24.7464    9.1845    8.6779 H   0  0  0  0  0  0  0  0  0  0  0  0
   23.8606    9.4192    7.1330 H   0  0  0  0  0  0  0  0  0  0  0  0
   25.4708    8.6230    7.1330 H   0  0  0  0  0  0  0  0  0  0  0  0
   25.3856   11.3417    8.3473 H   0  0  0  0  0  0  0  0  0  0  0  0
   26.5888   10.5794    7.2188 H   0  0  0  0  0  0  0  0  0  0  0  0
   26.1117   13.4238    6.1837 H   0  0  0  0  0  0  0  0  0  0  0  0
   26.1367   18.7321    4.4716 H   0  0  0  0  0  0  0  0  0  0  0  0
   26.4286   18.4496    6.9097 H   0  0  0  0  0  0  0  0  0  0  0  0
   26.8591   16.3006    8.6065 H   0  0  0  0  0  0  0  0  0  0  0  0
   23.6941   14.8069    7.8286 H   0  0  0  0  0  0  0  0  0  0  0  0
   21.8653   14.3459    9.4562 H   0  0  0  0  0  0  0  0  0  0  0  0
   21.9692   15.3043   11.7777 H   0  0  0  0  0  0  0  0  0  0  0  0
   26.8732   16.8848   11.2546 H   0  0  0  0  0  0  0  0  0  0  0  0
   26.1451   18.3194   10.5593 H   0  0  0  0  0  0  0  0  0  0  0  0
   27.0716   18.2922   13.1998 H   0  0  0  0  0  0  0  0  0  0  0  0
   24.7185   17.7312   15.1527 H   0  0  0  0  0  0  0  0  0  0  0  0
   25.9735   16.5215   14.7064 H   0  0  0  0  0  0  0  0  0  0  0  0
   26.4366   17.6308   16.8952 H   0  0  0  0  0  0  0  0  0  0  0  0
   27.7223   17.9328   15.6593 H   0  0  0  0  0  0  0  0  0  0  0  0
   26.5423   21.3390   14.9845 H   0  0  0  0  0  0  0  0  0  0  0  0
   22.8715   11.8165    3.8460 H   0  0  0  0  0  0  0  0  0  0  0  0
  1  2  1  0
  2  3  1  0
  3  4  2  0
  4  5  1  0
  5  6  1  0
  6  7  2  0
  6  8  2  0
  6  9  1  0
  9 10  2  0
 10 11  1  0
 11 12  2  0
 12 13  1  0
 13 14  1  0
 14 15  1  0
 15 16  2  0
 16 17  1  0
 17 18  2  0
 18 19  1  0
 19 20  2  0
 20 21  1  0
 21 22  1  0
 22 23  1  0
 23 24  1  0
 24 25  1  0
 25 26  1  0
 26 27  2  0
 26 28  1  0
 28 29  1  0
 29 30  2  0
 22 31  1  0
 31 32  2  0
 13 33  2  0
  5 34  1  0
 34 35  2  0
 35  3  1  0
 33  9  1  0
 20 15  1  0
 29 23  1  0
 31 19  1  0
  1 36  1  0
  1 37  1  0
  1 38  1  0
  2 39  1  0
  2 40  1  0
  4 41  1  0
 11 42  1  0
 12 43  1  0
 14 44  1  0
 16 45  1  0
 17 46  1  0
 18 47  1  0
 21 48  1  0
 21 49  1  0
 23 50  1  6
 24 51  1  0
 24 52  1  0
 25 53  1  0
 25 54  1  0
 28 55  1  0
 34 56  1  0
M  END
>  <meeko>  (673) 
{"is_sidechain": [true], "free_energy": -11.77, "intermolecular_energy": 0.0, "internal_energy": -11.77, "cluster_size": 3, "cluster_id": 2, "rank_in_cluster": 1}

>  <_RMSD_MCS_to_ref>  (673) 
0.9682885818689473

$$$$
ligand
     RDKit          3D

 65 69  0  0  0  0  0  0  0  0999 V2000
   24.8540    9.4020    7.6050 C   0  0  0  0  0  0  0  0  0  0  0  0
   25.5230   10.7550    7.4270 C   0  0  0  0  0  0  0  0  0  0  0  0
   27.0040   10.6730    7.5490 C   0  0  0  0  0  0  0  0  0  0  0  0
   27.9360   11.6910    7.5390 C   0  0  0  0  0  0  0  0  0  0  0  0
   29.1320   11.0530    7.7120 N   0  0  0  0  0  0  0  0  0  0  0  0
   30.6510   11.7690    7.6130 S   0  0  0  0  0  6  0  0  0  0  0  0
   31.4680   10.8670    6.8260 O   0  0  0  0  0  0  0  0  0  0  0  0
   30.9950   12.1420    8.9730 O   0  0  0  0  0  0  0  0  0  0  0  0
   30.3600   13.2420    6.6730 C   0  0  0  0  0  0  0  0  0  0  0  0
   31.1950   13.5640    5.6040 C   0  0  0  0  0  0  0  0  0  0  0  0
   30.9630   14.7350    4.8830 C   0  0  0  0  0  0  0  0  0  0  0  0
   29.9030   15.5940    5.2250 C   0  0  0  0  0  0  0  0  0  0  0  0
   29.0740   15.2780    6.3180 C   0  0  0  0  0  0  0  0  0  0  0  0
   29.2870   14.0710    7.0100 C   0  0  0  0  0  0  0  0  0  0  0  0
   27.9350   16.2040    6.7470 C   0  0  1  0  0  0  0  0  0  0  0  0
   27.8510   16.3530    8.2750 C   0  0  0  0  0  0  0  0  0  0  0  0
   28.8560   16.2210    8.9680 O   0  0  0  0  0  0  0  0  0  0  0  0
   26.5780   16.6670    8.7250 N   0  0  0  0  0  0  0  0  0  0  0  0
   26.2170   17.1650    9.9910 C   0  0  0  0  0  0  0  0  0  0  0  0
   25.2440   16.5940   10.8090 C   0  0  0  0  0  0  0  0  0  0  0  0
   25.0230   17.0900   12.0990 C   0  0  0  0  0  0  0  0  0  0  0  0
   25.7700   18.1700   12.5920 C   0  0  0  0  0  0  0  0  0  0  0  0
   25.5930   18.6140   14.0340 C   0  0  1  0  0  0  0  0  0  0  0  0
   26.6770   17.9650   14.9050 C   0  0  0  0  0  0  0  0  0  0  0  0
   26.4800   18.3600   16.3580 C   0  0  0  0  0  0  0  0  0  0  0  0
   26.4890   19.8580   16.5170 C   0  0  0  0  0  0  0  0  0  0  0  0
   26.8200   20.4080   17.5640 O   0  0  0  0  0  0  0  0  0  0  0  0
   26.0440   20.5880   15.4440 N   0  0  0  0  0  0  0  0  0  0  0  0
   25.5960   20.1300   14.2260 C   0  0  0  0  0  0  0  0  0  0  0  0
   25.1800   20.9330   13.3930 O   0  0  0  0  0  0  0  0  0  0  0  0
   26.7240   18.7580   11.7540 C   0  0  0  0  0  0  0  0  0  0  0  0
   26.9400   18.2650   10.4660 C   0  0  0  0  0  0  0  0  0  0  0  0
   28.0100   17.5960    6.1030 C   0  0  0  0  0  0  0  0  0  0  0  0
   28.3360   17.4880    4.6200 C   0  0  0  0  0  0  0  0  0  0  0  0
   29.7150   16.8630    4.4270 C   0  0  0  0  0  0  0  0  0  0  0  0
   28.9170    9.7130    7.7590 C   0  0  0  0  0  0  0  0  0  0  0  0
   27.6280    9.4500    7.6850 N   0  0  0  0  0  0  0  0  0  0  0  0
   24.7464    9.1845    8.6779 H   0  0  0  0  0  0  0  0  0  0  0  0
   23.8606    9.4192    7.1330 H   0  0  0  0  0  0  0  0  0  0  0  0
   25.4708    8.6230    7.1330 H   0  0  0  0  0  0  0  0  0  0  0  0
   25.2712   11.1457    6.4300 H   0  0  0  0  0  0  0  0  0  0  0  0
   25.1559   11.4193    8.2232 H   0  0  0  0  0  0  0  0  0  0  0  0
   27.7569   12.7697    7.4191 H   0  0  0  0  0  0  0  0  0  0  0  0
   32.0291   12.9006    5.3318 H   0  0  0  0  0  0  0  0  0  0  0  0
   31.6172   14.9901    4.0362 H   0  0  0  0  0  0  0  0  0  0  0  0
   28.6043   13.7785    7.8214 H   0  0  0  0  0  0  0  0  0  0  0  0
   27.0209   15.7118    6.3835 H   0  0  0  0  0  0  0  0  0  0  0  0
   25.8084   16.5190    8.0566 H   0  0  0  0  0  0  0  0  0  0  0  0
   24.6460   15.7483   10.4386 H   0  0  0  0  0  0  0  0  0  0  0  0
   24.2537   16.6269   12.7343 H   0  0  0  0  0  0  0  0  0  0  0  0
   24.5926   18.2782   14.3445 H   0  0  0  0  0  0  0  0  0  0  0  0
   26.6119   16.8708   14.8128 H   0  0  0  0  0  0  0  0  0  0  0  0
   27.6658   18.3092   14.5677 H   0  0  0  0  0  0  0  0  0  0  0  0
   25.5148   17.9669   16.7098 H   0  0  0  0  0  0  0  0  0  0  0  0
   27.3065   17.9401   16.9501 H   0  0  0  0  0  0  0  0  0  0  0  0
   26.0454   21.6108   15.5657 H   0  0  0  0  0  0  0  0  0  0  0  0
   27.3094   19.6170   12.1137 H   0  0  0  0  0  0  0  0  0  0  0  0
   27.6867   18.7464    9.8174 H   0  0  0  0  0  0  0  0  0  0  0  0
   27.0407   18.1019    6.2234 H   0  0  0  0  0  0  0  0  0  0  0  0
   28.8060   18.1715    6.5982 H   0  0  0  0  0  0  0  0  0  0  0  0
   27.5800   16.8594    4.1267 H   0  0  0  0  0  0  0  0  0  0  0  0
   28.3337   18.4953    4.1780 H   0  0  0  0  0  0  0  0  0  0  0  0
   29.8483   16.6297    3.3603 H   0  0  0  0  0  0  0  0  0  0  0  0
   30.4595   17.5901    4.7835 H   0  0  0  0  0  0  0  0  0  0  0  0
   29.7080    8.9536    7.8466 H   0  0  0  0  0  0  0  0  0  0  0  0
  1  2  1  0
  2  3  1  0
  3  4  2  0
  4  5  1  0
  5  6  1  0
  6  7  2  0
  6  8  2  0
  6  9  1  0
  9 10  2  0
 10 11  1  0
 11 12  2  0
 12 13  1  0
 13 14  2  0
 13 15  1  0
 15 16  1  0
 16 17  2  0
 16 18  1  0
 18 19  1  0
 19 20  2  0
 20 21  1  0
 21 22  2  0
 22 23  1  0
 23 24  1  0
 24 25  1  0
 25 26  1  0
 26 27  2  0
 26 28  1  0
 28 29  1  0
 29 30  2  0
 22 31  1  0
 31 32  2  0
 15 33  1  0
 33 34  1  0
 34 35  1  0
  5 36  1  0
 36 37  2  0
 37  3  1  0
 14  9  1  0
 32 19  1  0
 35 12  1  0
 29 23  1  0
  1 38  1  0
  1 39  1  0
  1 40  1  0
  2 41  1  0
  2 42  1  0
  4 43  1  0
 10 44  1  0
 11 45  1  0
 14 46  1  0
 15 47  1  6
 18 48  1  0
 20 49  1  0
 21 50  1  0
 23 51  1  1
 24 52  1  0
 24 53  1  0
 25 54  1  0
 25 55  1  0
 28 56  1  0
 31 57  1  0
 32 58  1  0
 33 59  1  0
 33 60  1  0
 34 61  1  0
 34 62  1  0
 35 63  1  0
 35 64  1  0
 36 65  1  0
M  END
>  <meeko>  (674) 
{"is_sidechain": [true], "free_energy": -11.77, "intermolecular_energy": 0.0, "internal_energy": -11.77, "cluster_size": 19, "cluster_id": 1, "rank_in_cluster": 1}

>  <_RMSD_MCS_to_ref>  (674) 
0.7517640919863082

$$$$
ligand
     RDKit          3D

 54 58  0  0  0  0  0  0  0  0999 V2000
   24.8710    9.6160    7.7820 C   0  0  0  0  0  0  0  0  0  0  0  0
   25.4240   10.9650    7.3490 C   0  0  0  0  0  0  0  0  0  0  0  0
   26.8900   10.9170    7.0990 C   0  0  0  0  0  0  0  0  0  0  0  0
   27.6140   11.4660    6.0590 C   0  0  0  0  0  0  0  0  0  0  0  0
   28.9030   11.0900    6.3120 N   0  0  0  0  0  0  0  0  0  0  0  0
   30.2720   11.6720    5.5190 S   0  0  0  0  0  6  0  0  0  0  0  0
   31.3850   11.0020    6.1650 O   0  0  0  0  0  0  0  0  0  0  0  0
   29.9880   11.4840    4.1070 O   0  0  0  0  0  0  0  0  0  0  0  0
   30.3340   13.2680    5.8490 O   0  0  0  0  0  0  0  0  0  0  0  0
   29.2490   13.9830    6.2210 C   0  0  0  0  0  0  0  0  0  0  0  0
   28.4800   14.5950    5.2600 C   0  0  0  0  0  0  0  0  0  0  0  0
   27.1590   15.4400    5.9380 S   0  0  0  0  0  0  0  0  0  0  0  0
   27.6070   15.0000    7.5360 C   0  0  0  0  0  0  0  0  0  0  0  0
   26.7960   15.4320    8.6850 C   0  0  0  0  0  0  0  0  0  0  0  0
   25.5480   14.8090    8.9280 C   0  0  0  0  0  0  0  0  0  0  0  0
   24.7480   15.1780   10.0150 C   0  0  0  0  0  0  0  0  0  0  0  0
   25.2260   16.1750   10.8410 C   0  0  0  0  0  0  0  0  0  0  0  0
   26.4500   16.8020   10.6320 C   0  0  0  0  0  0  0  0  0  0  0  0
   27.2490   16.4390    9.5590 C   0  0  0  0  0  0  0  0  0  0  0  0
   26.6970   17.8110   11.7040 C   0  0  0  0  0  0  0  0  0  0  0  0
   25.4610   17.7650   12.4730 N   0  0  0  0  0  0  0  0  0  0  0  0
   25.3010   18.3980   13.7770 C   0  0  2  0  0  0  0  0  0  0  0  0
   26.2280   19.5940   13.9630 C   0  0  0  0  0  0  0  0  0  0  0  0
   25.9400   20.2540   15.3030 C   0  0  0  0  0  0  0  0  0  0  0  0
   26.0620   19.2620   16.4360 C   0  0  0  0  0  0  0  0  0  0  0  0
   26.5080   19.5740   17.5370 O   0  0  0  0  0  0  0  0  0  0  0  0
   25.6330   17.9850   16.1820 N   0  0  0  0  0  0  0  0  0  0  0  0
   25.5220   17.4100   14.9360 C   0  0  0  0  0  0  0  0  0  0  0  0
   25.6100   16.1920   14.8050 O   0  0  0  0  0  0  0  0  0  0  0  0
   24.6130   16.7550   12.0400 C   0  0  0  0  0  0  0  0  0  0  0  0
   23.5610   16.3960   12.5330 O   0  0  0  0  0  0  0  0  0  0  0  0
   28.7470   14.2140    7.5340 C   0  0  0  0  0  0  0  0  0  0  0  0
   28.9470   10.4210    7.4920 C   0  0  0  0  0  0  0  0  0  0  0  0
   27.7350   10.2770    7.9860 N   0  0  0  0  0  0  0  0  0  0  0  0
   24.8497    9.5640    8.8806 H   0  0  0  0  0  0  0  0  0  0  0  0
   23.8507    9.4948    7.3893 H   0  0  0  0  0  0  0  0  0  0  0  0
   25.5127    8.8135    7.3893 H   0  0  0  0  0  0  0  0  0  0  0  0
   24.9167   11.2754    6.4236 H   0  0  0  0  0  0  0  0  0  0  0  0
   25.2435   11.6815    8.1639 H   0  0  0  0  0  0  0  0  0  0  0  0
   27.2386   12.0685    5.2187 H   0  0  0  0  0  0  0  0  0  0  0  0
   28.6904   14.5464    4.1814 H   0  0  0  0  0  0  0  0  0  0  0  0
   25.1999   14.0179    8.2476 H   0  0  0  0  0  0  0  0  0  0  0  0
   23.7785   14.6937   10.2034 H   0  0  0  0  0  0  0  0  0  0  0  0
   28.2198   16.9289    9.3931 H   0  0  0  0  0  0  0  0  0  0  0  0
   27.5611   17.5290   12.3235 H   0  0  0  0  0  0  0  0  0  0  0  0
   26.9345   18.8126   11.3163 H   0  0  0  0  0  0  0  0  0  0  0  0
   24.2593   18.7506   13.8000 H   0  0  0  0  0  0  0  0  0  0  0  0
   27.2741   19.2546   13.9385 H   0  0  0  0  0  0  0  0  0  0  0  0
   26.0591   20.3188   13.1530 H   0  0  0  0  0  0  0  0  0  0  0  0
   26.6585   21.0715   15.4625 H   0  0  0  0  0  0  0  0  0  0  0  0
   24.9105   20.6412   15.2873 H   0  0  0  0  0  0  0  0  0  0  0  0
   25.3713   17.4061   16.9928 H   0  0  0  0  0  0  0  0  0  0  0  0
   29.2135   13.8123    8.4456 H   0  0  0  0  0  0  0  0  0  0  0  0
   29.8665   10.0509    7.9690 H   0  0  0  0  0  0  0  0  0  0  0  0
  1  2  1  0
  2  3  1  0
  3  4  2  0
  4  5  1  0
  5  6  1  0
  6  7  2  0
  6  8  2  0
  6  9  1  0
  9 10  1  0
 10 11  2  0
 11 12  1  0
 12 13  1  0
 13 14  1  0
 14 15  2  0
 15 16  1  0
 16 17  2  0
 17 18  1  0
 18 19  2  0
 18 20  1  0
 20 21  1  0
 21 22  1  0
 22 23  1  0
 23 24  1  0
 24 25  1  0
 25 26  2  0
 25 27  1  0
 27 28  1  0
 28 29  2  0
 21 30  1  0
 30 31  2  0
 13 32  2  0
  5 33  1  0
 33 34  2  0
 34  3  1  0
 32 10  1  0
 19 14  1  0
 28 22  1  0
 30 17  1  0
  1 35  1  0
  1 36  1  0
  1 37  1  0
  2 38  1  0
  2 39  1  0
  4 40  1  0
 11 41  1  0
 15 42  1  0
 16 43  1  0
 19 44  1  0
 20 45  1  0
 20 46  1  0
 22 47  1  6
 23 48  1  0
 23 49  1  0
 24 50  1  0
 24 51  1  0
 27 52  1  0
 32 53  1  0
 33 54  1  0
M  END
>  <meeko>  (675) 
{"is_sidechain": [true], "free_energy": -11.77, "intermolecular_energy": 0.0, "internal_energy": -11.77, "cluster_size": 20, "cluster_id": 1, "rank_in_cluster": 1}

>  <_RMSD_MCS_to_ref>  (675) 
1.9290074759070435

$$$$
ligand
     RDKit          3D

 61 66  0  0  0  0  0  0  0  0999 V2000
   24.8710    9.6160    7.7820 C   0  0  0  0  0  0  0  0  0  0  0  0
   25.4240   10.9650    7.3490 C   0  0  0  0  0  0  0  0  0  0  0  0
   26.9010   10.9310    7.1650 C   0  0  0  0  0  0  0  0  0  0  0  0
   27.6950   11.7280    6.3640 C   0  0  0  0  0  0  0  0  0  0  0  0
   28.9610   11.2800    6.6010 N   0  0  0  0  0  0  0  0  0  0  0  0
   30.3730   11.9640    5.9970 S   0  0  0  0  0  6  0  0  0  0  0  0
   31.2570   10.8660    5.6560 O   0  0  0  0  0  0  0  0  0  0  0  0
   29.9110   12.9150    5.0060 O   0  0  0  0  0  0  0  0  0  0  0  0
   31.0620   12.8430    7.3600 C   0  0  0  0  0  0  0  0  0  0  0  0
   32.4430   12.8000    7.4920 C   0  0  0  0  0  0  0  0  0  0  0  0
   33.1230   13.4910    8.4310 N   0  0  0  0  0  0  0  0  0  0  0  0
   32.3900   14.2520    9.2720 C   0  0  0  0  0  0  0  0  0  0  0  0
   30.9980   14.3560    9.2390 C   0  0  0  0  0  0  0  0  0  0  0  0
   30.3140   15.1810   10.1470 C   0  0  0  0  0  0  0  0  0  0  0  0
   28.9240   15.2830   10.1110 C   0  0  0  0  0  0  0  0  0  0  0  0
   28.1830   14.5450    9.1860 C   0  0  0  0  0  0  0  0  0  0  0  0
   26.7210   14.6370    9.1360 C   0  0  0  0  0  0  0  0  0  0  0  0
   25.9890   13.9640    8.1340 C   0  0  0  0  0  0  0  0  0  0  0  0
   24.5850   14.0410    8.0610 C   0  0  0  0  0  0  0  0  0  0  0  0
   23.8690   14.7920    8.9910 C   0  0  0  0  0  0  0  0  0  0  0  0
   24.5940   15.4370    9.9740 C   0  0  0  0  0  0  0  0  0  0  0  0
   25.9860   15.3720   10.0620 C   0  0  0  0  0  0  0  0  0  0  0  0
   26.4510   16.1680   11.2390 C   0  0  0  0  0  0  0  0  0  0  0  0
   25.2030   16.6180   11.8410 N   0  0  0  0  0  0  0  0  0  0  0  0
   25.1320   17.6380   12.8800 C   0  0  1  0  0  0  0  0  0  0  0  0
   25.6690   17.1420   14.2200 C   0  0  0  0  0  0  0  0  0  0  0  0
   25.4800   18.2250   15.2700 C   0  0  0  0  0  0  0  0  0  0  0  0
   26.1320   19.5200   14.8420 C   0  0  0  0  0  0  0  0  0  0  0  0
   26.6890   20.2700   15.6360 O   0  0  0  0  0  0  0  0  0  0  0  0
   26.0580   19.8300   13.5080 N   0  0  0  0  0  0  0  0  0  0  0  0
   25.8820   18.9230   12.4890 C   0  0  0  0  0  0  0  0  0  0  0  0
   26.3220   19.1590   11.3660 O   0  0  0  0  0  0  0  0  0  0  0  0
   24.1000   16.2730   11.0730 C   0  0  0  0  0  0  0  0  0  0  0  0
   22.9390   16.5840   11.2510 O   0  0  0  0  0  0  0  0  0  0  0  0
   28.8760   13.7130    8.2880 C   0  0  0  0  0  0  0  0  0  0  0  0
   30.2910   13.6140    8.2650 C   0  0  0  0  0  0  0  0  0  0  0  0
   28.9130   10.2370    7.4680 C   0  0  0  0  0  0  0  0  0  0  0  0
   27.6730   10.0160    7.8530 N   0  0  0  0  0  0  0  0  0  0  0  0
   24.8497    9.5640    8.8806 H   0  0  0  0  0  0  0  0  0  0  0  0
   23.8507    9.4948    7.3893 H   0  0  0  0  0  0  0  0  0  0  0  0
   25.5127    8.8135    7.3893 H   0  0  0  0  0  0  0  0  0  0  0  0
   24.9543   11.2519    6.3966 H   0  0  0  0  0  0  0  0  0  0  0  0
   25.1976   11.6942    8.1408 H   0  0  0  0  0  0  0  0  0  0  0  0
   27.3790   12.5378    5.6900 H   0  0  0  0  0  0  0  0  0  0  0  0
   33.0135   12.1693    6.7943 H   0  0  0  0  0  0  0  0  0  0  0  0
   32.9277   14.8310   10.0373 H   0  0  0  0  0  0  0  0  0  0  0  0
   30.8817   15.7534   10.8954 H   0  0  0  0  0  0  0  0  0  0  0  0
   28.4072   15.9500   10.8167 H   0  0  0  0  0  0  0  0  0  0  0  0
   26.5308   13.3625    7.3892 H   0  0  0  0  0  0  0  0  0  0  0  0
   24.0495   13.5044    7.2640 H   0  0  0  0  0  0  0  0  0  0  0  0
   22.7726   14.8680    8.9443 H   0  0  0  0  0  0  0  0  0  0  0  0
   27.0247   15.5421   11.9384 H   0  0  0  0  0  0  0  0  0  0  0  0
   27.1244   16.9939   10.9662 H   0  0  0  0  0  0  0  0  0  0  0  0
   24.0613   17.8663   12.9874 H   0  0  0  0  0  0  0  0  0  0  0  0
   25.1215   16.2373   14.5229 H   0  0  0  0  0  0  0  0  0  0  0  0
   26.7390   16.9059   14.1231 H   0  0  0  0  0  0  0  0  0  0  0  0
   24.4037   18.3970   15.4186 H   0  0  0  0  0  0  0  0  0  0  0  0
   25.9516   17.8897   16.2055 H   0  0  0  0  0  0  0  0  0  0  0  0
   26.1410   20.8232   13.2480 H   0  0  0  0  0  0  0  0  0  0  0  0
   28.2952   13.1128    7.5722 H   0  0  0  0  0  0  0  0  0  0  0  0
   29.7865    9.6579    7.8021 H   0  0  0  0  0  0  0  0  0  0  0  0
  1  2  1  0
  2  3  1  0
  3  4  2  0
  4  5  1  0
  5  6  1  0
  6  7  2  0
  6  8  2  0
  6  9  1  0
  9 10  2  0
 10 11  1  0
 11 12  2  0
 12 13  1  0
 13 14  2  0
 14 15  1  0
 15 16  2  0
 16 17  1  0
 17 18  2  0
 18 19  1  0
 19 20  2  0
 20 21  1  0
 21 22  2  0
 22 23  1  0
 23 24  1  0
 24 25  1  0
 25 26  1  0
 26 27  1  0
 27 28  1  0
 28 29  2  0
 28 30  1  0
 30 31  1  0
 31 32  2  0
 24 33  1  0
 33 34  2  0
 16 35  1  0
 35 36  2  0
  5 37  1  0
 37 38  2  0
 38  3  1  0
 36  9  1  0
 36 13  1  0
 22 17  1  0
 31 25  1  0
 33 21  1  0
  1 39  1  0
  1 40  1  0
  1 41  1  0
  2 42  1  0
  2 43  1  0
  4 44  1  0
 10 45  1  0
 12 46  1  0
 14 47  1  0
 15 48  1  0
 18 49  1  0
 19 50  1  0
 20 51  1  0
 23 52  1  0
 23 53  1  0
 25 54  1  1
 26 55  1  0
 26 56  1  0
 27 57  1  0
 27 58  1  0
 30 59  1  0
 35 60  1  0
 37 61  1  0
M  END
>  <meeko>  (676) 
{"is_sidechain": [true], "free_energy": -11.77, "intermolecular_energy": 0.0, "internal_energy": -11.77, "cluster_size": 14, "cluster_id": 1, "rank_in_cluster": 1}

>  <_RMSD_MCS_to_ref>  (676) 
1.9667891487283418

$$$$
ligand
     RDKit          3D

 56 60  0  0  0  0  0  0  0  0999 V2000
   24.8540    9.4020    7.6050 C   0  0  0  0  0  0  0  0  0  0  0  0
   25.5230   10.7550    7.4270 C   0  0  0  0  0  0  0  0  0  0  0  0
   27.0030   10.6700    7.5500 C   0  0  0  0  0  0  0  0  0  0  0  0
   27.9350   11.6890    7.5650 C   0  0  0  0  0  0  0  0  0  0  0  0
   29.1370   11.0440    7.6610 N   0  0  0  0  0  0  0  0  0  0  0  0
   30.6280   11.7950    7.9100 S   0  0  0  0  0  6  0  0  0  0  0  0
   31.3660   10.9210    8.8030 O   0  0  0  0  0  0  0  0  0  0  0  0
   31.1180   12.0590    6.5680 O   0  0  0  0  0  0  0  0  0  0  0  0
   30.3510   13.2390    8.6300 O   0  0  0  0  0  0  0  0  0  0  0  0
   29.3700   14.0570    8.1390 C   0  0  0  0  0  0  0  0  0  0  0  0
   29.6430   14.8070    7.0000 C   0  0  0  0  0  0  0  0  0  0  0  0
   28.6660   15.6570    6.4880 C   0  0  0  0  0  0  0  0  0  0  0  0
   27.4280   15.7640    7.1270 C   0  0  0  0  0  0  0  0  0  0  0  0
   27.1500   15.0290    8.2910 C   0  0  0  0  0  0  0  0  0  0  0  0
   25.8520   15.1460    8.9630 C   0  0  0  0  0  0  0  0  0  0  0  0
   24.7150   14.4880    8.4480 C   0  0  0  0  0  0  0  0  0  0  0  0
   23.4500   14.5960    9.0640 C   0  0  0  0  0  0  0  0  0  0  0  0
   23.2830   15.3650   10.2140 C   0  0  0  0  0  0  0  0  0  0  0  0
   24.4020   16.0040   10.7110 C   0  0  0  0  0  0  0  0  0  0  0  0
   25.6490   15.9010   10.1140 C   0  0  0  0  0  0  0  0  0  0  0  0
   26.5790   16.6780   10.9440 C   0  0  0  0  0  0  0  0  0  0  0  0
   27.7820   16.7380   10.7800 O   0  0  0  0  0  0  0  0  0  0  0  0
   25.8380   17.2640   11.9340 N   0  0  0  0  0  0  0  0  0  0  0  0
   26.3910   18.0120   13.0530 C   0  0  2  0  0  0  0  0  0  0  0  0
   26.0080   17.4640   14.4250 C   0  0  0  0  0  0  0  0  0  0  0  0
   26.6770   18.3050   15.5030 C   0  0  0  0  0  0  0  0  0  0  0  0
   26.3140   19.7650   15.3650 C   0  0  0  0  0  0  0  0  0  0  0  0
   26.3240   20.5350   16.3210 O   0  0  0  0  0  0  0  0  0  0  0  0
   26.0320   20.2140   14.0990 N   0  0  0  0  0  0  0  0  0  0  0  0
   25.9700   19.4820   12.9340 C   0  0  0  0  0  0  0  0  0  0  0  0
   25.6560   20.0200   11.8750 O   0  0  0  0  0  0  0  0  0  0  0  0
   24.5340   16.8600   11.8860 C   0  0  0  0  0  0  0  0  0  0  0  0
   23.6210   17.1320   12.6430 O   0  0  0  0  0  0  0  0  0  0  0  0
   28.1480   14.1840    8.7990 C   0  0  0  0  0  0  0  0  0  0  0  0
   28.9160    9.7110    7.7790 C   0  0  0  0  0  0  0  0  0  0  0  0
   27.6270    9.4470    7.6900 N   0  0  0  0  0  0  0  0  0  0  0  0
   24.7464    9.1845    8.6779 H   0  0  0  0  0  0  0  0  0  0  0  0
   23.8606    9.4192    7.1330 H   0  0  0  0  0  0  0  0  0  0  0  0
   25.4708    8.6230    7.1330 H   0  0  0  0  0  0  0  0  0  0  0  0
   25.2722   11.1459    6.4299 H   0  0  0  0  0  0  0  0  0  0  0  0
   25.1556   11.4208    8.2218 H   0  0  0  0  0  0  0  0  0  0  0  0
   27.7522   12.7724    7.5118 H   0  0  0  0  0  0  0  0  0  0  0  0
   30.6234   14.7293    6.5073 H   0  0  0  0  0  0  0  0  0  0  0  0
   28.8689   16.2443    5.5803 H   0  0  0  0  0  0  0  0  0  0  0  0
   26.6601   16.4336    6.7124 H   0  0  0  0  0  0  0  0  0  0  0  0
   24.8175   13.8738    7.5412 H   0  0  0  0  0  0  0  0  0  0  0  0
   22.5871   14.0679    8.6321 H   0  0  0  0  0  0  0  0  0  0  0  0
   22.3029   15.4590   10.7045 H   0  0  0  0  0  0  0  0  0  0  0  0
   27.4843   17.9089   12.9898 H   0  0  0  0  0  0  0  0  0  0  0  0
   24.9158   17.5092   14.5477 H   0  0  0  0  0  0  0  0  0  0  0  0
   26.3398   16.4188   14.5119 H   0  0  0  0  0  0  0  0  0  0  0  0
   26.3511   17.9466   16.4906 H   0  0  0  0  0  0  0  0  0  0  0  0
   27.7671   18.2066   15.3932 H   0  0  0  0  0  0  0  0  0  0  0  0
   25.8435   21.2226   14.0091 H   0  0  0  0  0  0  0  0  0  0  0  0
   27.9654   13.6177    9.7242 H   0  0  0  0  0  0  0  0  0  0  0  0
   29.7019    8.9559    7.9281 H   0  0  0  0  0  0  0  0  0  0  0  0
  1  2  1  0
  2  3  1  0
  3  4  2  0
  4  5  1  0
  5  6  1  0
  6  7  2  0
  6  8  2  0
  6  9  1  0
  9 10  1  0
 10 11  2  0
 11 12  1  0
 12 13  2  0
 13 14  1  0
 14 15  1  0
 15 16  2  0
 16 17  1  0
 17 18  2  0
 18 19  1  0
 19 20  2  0
 20 21  1  0
 21 22  2  0
 21 23  1  0
 23 24  1  0
 24 25  1  0
 25 26  1  0
 26 27  1  0
 27 28  2  0
 27 29  1  0
 29 30  1  0
 30 31  2  0
 23 32  1  0
 32 33  2  0
 14 34  2  0
  5 35  1  0
 35 36  2  0
 36  3  1  0
 34 10  1  0
 20 15  1  0
 30 24  1  0
 32 19  1  0
  1 37  1  0
  1 38  1  0
  1 39  1  0
  2 40  1  0
  2 41  1  0
  4 42  1  0
 11 43  1  0
 12 44  1  0
 13 45  1  0
 16 46  1  0
 17 47  1  0
 18 48  1  0
 24 49  1  6
 25 50  1  0
 25 51  1  0
 26 52  1  0
 26 53  1  0
 29 54  1  0
 34 55  1  0
 35 56  1  0
M  END
>  <meeko>  (677) 
{"is_sidechain": [true], "free_energy": -11.76, "intermolecular_energy": 0.0, "internal_energy": -11.76, "cluster_size": 15, "cluster_id": 1, "rank_in_cluster": 1}

>  <_RMSD_MCS_to_ref>  (677) 
1.6697933671232754

$$$$
ligand
     RDKit          3D

 55 59  0  0  0  0  0  0  0  0999 V2000
   24.8710    9.6160    7.7820 C   0  0  0  0  0  0  0  0  0  0  0  0
   25.4240   10.9650    7.3490 C   0  0  0  0  0  0  0  0  0  0  0  0
   26.7630   10.8450    6.7110 C   0  0  0  0  0  0  0  0  0  0  0  0
   28.0110   10.8490    7.3030 C   0  0  0  0  0  0  0  0  0  0  0  0
   28.8790   10.7130    6.2570 N   0  0  0  0  0  0  0  0  0  0  0  0
   30.5560   10.8940    6.3360 S   0  0  0  0  0  6  0  0  0  0  0  0
   30.9420   10.1330    7.5110 O   0  0  0  0  0  0  0  0  0  0  0  0
   31.0390   10.5220    5.0180 O   0  0  0  0  0  0  0  0  0  0  0  0
   30.8960   12.4700    6.6190 O   0  0  0  0  0  0  0  0  0  0  0  0
   30.6190   12.9990    7.8600 C   0  0  0  0  0  0  0  0  0  0  0  0
   31.5270   12.8270    8.9060 C   0  0  0  0  0  0  0  0  0  0  0  0
   31.2590   13.3660   10.1550 C   0  0  0  0  0  0  0  0  0  0  0  0
   30.0730   14.0720   10.3770 C   0  0  0  0  0  0  0  0  0  0  0  0
   29.1130   14.2320    9.3420 C   0  0  0  0  0  0  0  0  0  0  0  0
   29.4010   13.6750    8.0950 C   0  0  0  0  0  0  0  0  0  0  0  0
   28.1200   13.9430    6.9840 S   0  0  0  0  0  0  0  0  0  0  0  0
   27.1910   14.8310    8.1150 C   0  0  0  0  0  0  0  0  0  0  0  0
   25.9360   15.4310    7.8880 C   0  0  0  0  0  0  0  0  0  0  0  0
   25.3100   16.1200    8.9310 C   0  0  0  0  0  0  0  0  0  0  0  0
   25.9120   16.2040   10.1840 C   0  0  0  0  0  0  0  0  0  0  0  0
   25.2820   16.9290   11.3240 C   0  0  0  0  0  0  0  0  0  0  0  0
   24.1620   17.4160   11.2070 O   0  0  0  0  0  0  0  0  0  0  0  0
   26.0300   17.0480   12.4740 N   0  0  0  0  0  0  0  0  0  0  0  0
   25.5690   17.8680   13.5860 C   0  0  1  0  0  0  0  0  0  0  0  0
   25.9590   17.2820   14.9390 C   0  0  0  0  0  0  0  0  0  0  0  0
   25.4850   18.2080   16.0480 C   0  0  0  0  0  0  0  0  0  0  0  0
   26.0250   19.6060   15.8640 C   0  0  0  0  0  0  0  0  0  0  0  0
   26.3140   20.3320   16.8110 O   0  0  0  0  0  0  0  0  0  0  0  0
   26.1540   20.0510   14.5730 N   0  0  0  0  0  0  0  0  0  0  0  0
   26.1900   19.2620   13.4500 C   0  0  0  0  0  0  0  0  0  0  0  0
   26.6850   19.6700   12.3990 O   0  0  0  0  0  0  0  0  0  0  0  0
   27.1700   15.6160   10.3920 C   0  0  0  0  0  0  0  0  0  0  0  0
   27.8300   14.9120    9.3510 C   0  0  0  0  0  0  0  0  0  0  0  0
   28.1730   10.6720    5.0970 C   0  0  0  0  0  0  0  0  0  0  0  0
   26.8810   10.7310    5.3410 N   0  0  0  0  0  0  0  0  0  0  0  0
   24.8497    9.5640    8.8806 H   0  0  0  0  0  0  0  0  0  0  0  0
   23.8507    9.4948    7.3893 H   0  0  0  0  0  0  0  0  0  0  0  0
   25.5127    8.8135    7.3893 H   0  0  0  0  0  0  0  0  0  0  0  0
   24.7276   11.4186    6.6284 H   0  0  0  0  0  0  0  0  0  0  0  0
   25.5330   11.5896    8.2479 H   0  0  0  0  0  0  0  0  0  0  0  0
   28.2511   10.9408    8.3726 H   0  0  0  0  0  0  0  0  0  0  0  0
   32.4566   12.2630    8.7392 H   0  0  0  0  0  0  0  0  0  0  0  0
   31.9820   13.2377   10.9740 H   0  0  0  0  0  0  0  0  0  0  0  0
   29.8803   14.5100   11.3675 H   0  0  0  0  0  0  0  0  0  0  0  0
   25.4547   15.3580    6.9016 H   0  0  0  0  0  0  0  0  0  0  0  0
   24.3347   16.5993    8.7607 H   0  0  0  0  0  0  0  0  0  0  0  0
   26.9285   16.5500   12.5489 H   0  0  0  0  0  0  0  0  0  0  0  0
   24.4705   17.9100   13.5468 H   0  0  0  0  0  0  0  0  0  0  0  0
   25.4895   16.2946   15.0600 H   0  0  0  0  0  0  0  0  0  0  0  0
   27.0527   17.1768   14.9915 H   0  0  0  0  0  0  0  0  0  0  0  0
   24.3856   18.2445   16.0389 H   0  0  0  0  0  0  0  0  0  0  0  0
   25.8536   17.8171   17.0079 H   0  0  0  0  0  0  0  0  0  0  0  0
   26.2308   21.0686   14.4335 H   0  0  0  0  0  0  0  0  0  0  0  0
   27.6517   15.7023   11.3772 H   0  0  0  0  0  0  0  0  0  0  0  0
   28.6189   10.5996    4.0940 H   0  0  0  0  0  0  0  0  0  0  0  0
  1  2  1  0
  2  3  1  0
  3  4  2  0
  4  5  1  0
  5  6  1  0
  6  7  2  0
  6  8  2  0
  6  9  1  0
  9 10  1  0
 10 11  2  0
 11 12  1  0
 12 13  2  0
 13 14  1  0
 14 15  2  0
 15 16  1  0
 16 17  1  0
 17 18  2  0
 18 19  1  0
 19 20  2  0
 20 21  1  0
 21 22  2  0
 21 23  1  0
 23 24  1  0
 24 25  1  0
 25 26  1  0
 26 27  1  0
 27 28  2  0
 27 29  1  0
 29 30  1  0
 30 31  2  0
 20 32  1  0
 32 33  2  0
  5 34  1  0
 34 35  2  0
 35  3  1  0
 15 10  1  0
 33 17  1  0
 33 14  1  0
 30 24  1  0
  1 36  1  0
  1 37  1  0
  1 38  1  0
  2 39  1  0
  2 40  1  0
  4 41  1  0
 11 42  1  0
 12 43  1  0
 13 44  1  0
 18 45  1  0
 19 46  1  0
 23 47  1  0
 24 48  1  1
 25 49  1  0
 25 50  1  0
 26 51  1  0
 26 52  1  0
 29 53  1  0
 32 54  1  0
 34 55  1  0
M  END
>  <meeko>  (678) 
{"is_sidechain": [true], "free_energy": -11.76, "intermolecular_energy": 0.0, "internal_energy": -11.76, "cluster_size": 20, "cluster_id": 1, "rank_in_cluster": 1}

>  <_RMSD_MCS_to_ref>  (678) 
1.343631935381776

$$$$
ligand
     RDKit          3D

 57 61  0  0  0  0  0  0  0  0999 V2000
   24.8540    9.4020    7.6050 C   0  0  0  0  0  0  0  0  0  0  0  0
   25.5230   10.7550    7.4270 C   0  0  0  0  0  0  0  0  0  0  0  0
   27.0010   10.6380    7.2870 C   0  0  0  0  0  0  0  0  0  0  0  0
   27.8370   11.2610    6.3830 C   0  0  0  0  0  0  0  0  0  0  0  0
   29.0790   10.7850    6.6940 N   0  0  0  0  0  0  0  0  0  0  0  0
   30.5500   11.3690    6.1020 S   0  0  0  0  0  6  0  0  0  0  0  0
   30.5190   11.1020    4.6760 O   0  0  0  0  0  0  0  0  0  0  0  0
   31.5470   10.7490    6.9560 O   0  0  0  0  0  0  0  0  0  0  0  0
   30.5980   12.9850    6.3600 O   0  0  0  0  0  0  0  0  0  0  0  0
   29.4410   13.7140    6.2960 C   0  0  0  0  0  0  0  0  0  0  0  0
   28.9180   13.9830    5.0330 C   0  0  0  0  0  0  0  0  0  0  0  0
   27.7460   14.7280    4.9140 C   0  0  0  0  0  0  0  0  0  0  0  0
   27.0820   15.1820    6.0610 C   0  0  0  0  0  0  0  0  0  0  0  0
   27.6110   14.8980    7.3450 C   0  0  0  0  0  0  0  0  0  0  0  0
   28.7850   14.1420    7.4500 C   0  0  0  0  0  0  0  0  0  0  0  0
   26.8660   15.4090    8.5030 C   0  0  0  0  0  0  0  0  0  0  0  0
   27.4710   15.5050   10.0880 S   0  0  0  0  0  0  0  0  0  0  0  0
   26.0200   16.2000   10.6850 C   0  0  0  0  0  0  0  0  0  0  0  0
   25.8450   16.5600   12.0850 C   0  0  0  0  0  0  0  0  0  0  0  0
   25.5550   15.7400   12.9550 O   0  0  0  0  0  0  0  0  0  0  0  0
   26.0090   17.8910   12.3960 N   0  0  0  0  0  0  0  0  0  0  0  0
   25.7180   18.4200   13.7170 C   0  0  1  0  0  0  0  0  0  0  0  0
   26.6310   17.8270   14.7860 C   0  0  0  0  0  0  0  0  0  0  0  0
   26.2970   18.4430   16.1360 C   0  0  0  0  0  0  0  0  0  0  0  0
   26.3890   19.9500   16.0900 C   0  0  0  0  0  0  0  0  0  0  0  0
   26.7490   20.6170   17.0550 O   0  0  0  0  0  0  0  0  0  0  0  0
   26.0160   20.5530   14.9160 N   0  0  0  0  0  0  0  0  0  0  0  0
   25.9020   19.9400   13.6920 C   0  0  0  0  0  0  0  0  0  0  0  0
   25.9300   20.5930   12.6490 O   0  0  0  0  0  0  0  0  0  0  0  0
   25.0900   16.3560    9.6720 C   0  0  0  0  0  0  0  0  0  0  0  0
   25.5790   15.9060    8.4110 C   0  0  0  0  0  0  0  0  0  0  0  0
   24.8550   15.9080    7.1000 C   0  0  0  0  0  0  0  0  0  0  0  0
   25.8380   16.0480    5.9220 C   0  0  0  0  0  0  0  0  0  0  0  0
   28.9830    9.9580    7.7670 C   0  0  0  0  0  0  0  0  0  0  0  0
   27.7280    9.8330    8.1440 N   0  0  0  0  0  0  0  0  0  0  0  0
   24.7464    9.1845    8.6779 H   0  0  0  0  0  0  0  0  0  0  0  0
   23.8606    9.4192    7.1330 H   0  0  0  0  0  0  0  0  0  0  0  0
   25.4708    8.6230    7.1330 H   0  0  0  0  0  0  0  0  0  0  0  0
   25.1184   11.2340    6.5232 H   0  0  0  0  0  0  0  0  0  0  0  0
   25.3155   11.3550    8.3253 H   0  0  0  0  0  0  0  0  0  0  0  0
   27.5655   11.9768    5.5931 H   0  0  0  0  0  0  0  0  0  0  0  0
   29.4281   13.6088    4.1331 H   0  0  0  0  0  0  0  0  0  0  0  0
   27.3417   14.9599    3.9176 H   0  0  0  0  0  0  0  0  0  0  0  0
   29.1890   13.8862    8.4406 H   0  0  0  0  0  0  0  0  0  0  0  0
   26.3498   18.5338   11.6669 H   0  0  0  0  0  0  0  0  0  0  0  0
   24.6824   18.1498   13.9708 H   0  0  0  0  0  0  0  0  0  0  0  0
   26.4819   16.7382   14.8328 H   0  0  0  0  0  0  0  0  0  0  0  0
   27.6797   18.0428   14.5337 H   0  0  0  0  0  0  0  0  0  0  0  0
   25.2734   18.1550   16.4178 H   0  0  0  0  0  0  0  0  0  0  0  0
   27.0230   18.0734   16.8752 H   0  0  0  0  0  0  0  0  0  0  0  0
   25.8013   21.5596   14.9558 H   0  0  0  0  0  0  0  0  0  0  0  0
   24.0862   16.7797    9.8230 H   0  0  0  0  0  0  0  0  0  0  0  0
   24.3006   14.9638    6.9946 H   0  0  0  0  0  0  0  0  0  0  0  0
   24.1663   16.7655    7.0833 H   0  0  0  0  0  0  0  0  0  0  0  0
   25.3159   15.7610    4.9973 H   0  0  0  0  0  0  0  0  0  0  0  0
   26.1740   17.0953    5.9046 H   0  0  0  0  0  0  0  0  0  0  0  0
   29.8356    9.4616    8.2535 H   0  0  0  0  0  0  0  0  0  0  0  0
  1  2  1  0
  2  3  1  0
  3  4  2  0
  4  5  1  0
  5  6  1  0
  6  7  2  0
  6  8  2  0
  6  9  1  0
  9 10  1  0
 10 11  2  0
 11 12  1  0
 12 13  2  0
 13 14  1  0
 14 15  2  0
 14 16  1  0
 16 17  1  0
 17 18  1  0
 18 19  1  0
 19 20  2  0
 19 21  1  0
 21 22  1  0
 22 23  1  0
 23 24  1  0
 24 25  1  0
 25 26  2  0
 25 27  1  0
 27 28  1  0
 28 29  2  0
 18 30  2  0
 30 31  1  0
 31 32  1  0
 32 33  1  0
  5 34  1  0
 34 35  2  0
 35  3  1  0
 15 10  1  0
 31 16  2  0
 33 13  1  0
 28 22  1  0
  1 36  1  0
  1 37  1  0
  1 38  1  0
  2 39  1  0
  2 40  1  0
  4 41  1  0
 11 42  1  0
 12 43  1  0
 15 44  1  0
 21 45  1  0
 22 46  1  1
 23 47  1  0
 23 48  1  0
 24 49  1  0
 24 50  1  0
 27 51  1  0
 30 52  1  0
 32 53  1  0
 32 54  1  0
 33 55  1  0
 33 56  1  0
 34 57  1  0
M  END
>  <meeko>  (679) 
{"is_sidechain": [true], "free_energy": -11.75, "intermolecular_energy": 0.0, "internal_energy": -11.75, "cluster_size": 18, "cluster_id": 1, "rank_in_cluster": 1}

>  <_RMSD_MCS_to_ref>  (679) 
1.103952947870112

$$$$
ligand
     RDKit          3D

 62 67  0  0  0  0  0  0  0  0999 V2000
   24.8540    9.4020    7.6050 C   0  0  0  0  0  0  0  0  0  0  0  0
   25.5230   10.7550    7.4270 C   0  0  0  0  0  0  0  0  0  0  0  0
   25.2530   11.3560    6.0920 C   0  0  0  0  0  0  0  0  0  0  0  0
   24.3390   12.3360    5.7560 C   0  0  0  0  0  0  0  0  0  0  0  0
   24.4750   12.4710    4.4040 N   0  0  0  0  0  0  0  0  0  0  0  0
   23.6600   13.5690    3.4250 S   0  0  0  0  0  6  0  0  0  0  0  0
   24.2740   13.4230    2.1140 O   0  0  0  0  0  0  0  0  0  0  0  0
   22.2510   13.2930    3.6580 O   0  0  0  0  0  0  0  0  0  0  0  0
   24.0720   15.1610    4.0950 C   0  0  0  0  0  0  0  0  0  0  0  0
   24.8990   15.1800    5.1480 N   0  0  0  0  0  0  0  0  0  0  0  0
   25.1840   16.3970    5.6430 C   0  0  0  0  0  0  0  0  0  0  0  0
   26.0220   16.4980    6.7860 N   0  0  0  0  0  0  0  0  0  0  0  0
   25.6380   16.5890    8.1450 C   0  0  0  0  0  0  0  0  0  0  0  0
   24.5350   15.8730    8.6650 C   0  0  0  0  0  0  0  0  0  0  0  0
   24.1810   15.9310   10.0210 C   0  0  0  0  0  0  0  0  0  0  0  0
   24.9620   16.6940   10.8640 C   0  0  0  0  0  0  0  0  0  0  0  0
   26.0670   17.3710   10.3600 C   0  0  0  0  0  0  0  0  0  0  0  0
   26.4360   17.3270    9.0280 C   0  0  0  0  0  0  0  0  0  0  0  0
   26.7150   18.0750   11.4700 C   0  0  0  0  0  0  0  0  0  0  0  0
   27.7510   18.7060   11.3870 O   0  0  0  0  0  0  0  0  0  0  0  0
   25.9430   17.8440   12.5960 N   0  0  0  0  0  0  0  0  0  0  0  0
   26.3640   18.2460   13.9350 C   0  0  2  0  0  0  0  0  0  0  0  0
   25.9210   17.2190   14.9760 C   0  0  0  0  0  0  0  0  0  0  0  0
   26.4760   17.5970   16.3400 C   0  0  0  0  0  0  0  0  0  0  0  0
   26.0610   18.9940   16.7310 C   0  0  0  0  0  0  0  0  0  0  0  0
   25.8830   19.3230   17.8990 O   0  0  0  0  0  0  0  0  0  0  0  0
   25.9260   19.9020   15.7120 N   0  0  0  0  0  0  0  0  0  0  0  0
   25.8980   19.6470   14.3590 C   0  0  0  0  0  0  0  0  0  0  0  0
   25.5520   20.5290   13.5770 O   0  0  0  0  0  0  0  0  0  0  0  0
   24.8270   16.9420   12.3300 C   0  0  0  0  0  0  0  0  0  0  0  0
   24.6680   17.5810    5.0710 C   0  0  0  0  0  0  0  0  0  0  0  0
   24.9590   18.8970    5.5170 C   0  0  0  0  0  0  0  0  0  0  0  0
   24.3950   20.0070    4.8920 C   0  0  0  0  0  0  0  0  0  0  0  0
   23.5410   19.8230    3.8150 C   0  0  0  0  0  0  0  0  0  0  0  0
   23.2610   18.5300    3.3650 C   0  0  0  0  0  0  0  0  0  0  0  0
   23.8120   17.4080    3.9700 C   0  0  0  0  0  0  0  0  0  0  0  0
   23.5030   16.2080    3.4780 N   0  0  0  0  0  0  0  0  0  0  0  0
   25.4560   11.6380    3.9700 C   0  0  0  0  0  0  0  0  0  0  0  0
   25.9470   10.9370    4.9720 N   0  0  0  0  0  0  0  0  0  0  0  0
   24.7464    9.1845    8.6779 H   0  0  0  0  0  0  0  0  0  0  0  0
   23.8606    9.4192    7.1330 H   0  0  0  0  0  0  0  0  0  0  0  0
   25.4708    8.6230    7.1330 H   0  0  0  0  0  0  0  0  0  0  0  0
   25.1481   11.4382    8.2033 H   0  0  0  0  0  0  0  0  0  0  0  0
   26.6093   10.6031    7.5104 H   0  0  0  0  0  0  0  0  0  0  0  0
   23.6576   12.8825    6.4246 H   0  0  0  0  0  0  0  0  0  0  0  0
   27.0355   16.5060    6.6025 H   0  0  0  0  0  0  0  0  0  0  0  0
   23.9355   15.2507    7.9843 H   0  0  0  0  0  0  0  0  0  0  0  0
   23.3058   15.3838   10.4012 H   0  0  0  0  0  0  0  0  0  0  0  0
   27.3316   17.8571    8.6719 H   0  0  0  0  0  0  0  0  0  0  0  0
   27.4620   18.2901   13.8849 H   0  0  0  0  0  0  0  0  0  0  0  0
   24.8222   17.1963   15.0222 H   0  0  0  0  0  0  0  0  0  0  0  0
   26.3003   16.2264   14.6916 H   0  0  0  0  0  0  0  0  0  0  0  0
   26.0976   16.8872   17.0904 H   0  0  0  0  0  0  0  0  0  0  0  0
   27.5743   17.5613   16.2908 H   0  0  0  0  0  0  0  0  0  0  0  0
   25.8350   20.8893   15.9911 H   0  0  0  0  0  0  0  0  0  0  0  0
   24.9243   16.0080   12.9028 H   0  0  0  0  0  0  0  0  0  0  0  0
   23.8488   17.3538   12.6192 H   0  0  0  0  0  0  0  0  0  0  0  0
   25.6399   19.0424    6.3686 H   0  0  0  0  0  0  0  0  0  0  0  0
   24.6252   21.0213    5.2500 H   0  0  0  0  0  0  0  0  0  0  0  0
   23.0857   20.6916    3.3168 H   0  0  0  0  0  0  0  0  0  0  0  0
   22.5851   18.3972    2.5074 H   0  0  0  0  0  0  0  0  0  0  0  0
   25.7940   11.5594    2.9262 H   0  0  0  0  0  0  0  0  0  0  0  0
  1  2  1  0
  2  3  1  0
  3  4  2  0
  4  5  1  0
  5  6  1  0
  6  7  2  0
  6  8  2  0
  6  9  1  0
  9 10  2  0
 10 11  1  0
 11 12  1  0
 12 13  1  0
 13 14  2  0
 14 15  1  0
 15 16  2  0
 16 17  1  0
 17 18  2  0
 17 19  1  0
 19 20  2  0
 19 21  1  0
 21 22  1  0
 22 23  1  0
 23 24  1  0
 24 25  1  0
 25 26  2  0
 25 27  1  0
 27 28  1  0
 28 29  2  0
 21 30  1  0
 11 31  2  0
 31 32  1  0
 32 33  2  0
 33 34  1  0
 34 35  2  0
 35 36  1  0
 36 37  2  0
  5 38  1  0
 38 39  2  0
 39  3  1  0
 37  9  1  0
 18 13  1  0
 28 22  1  0
 36 31  1  0
 30 16  1  0
  1 40  1  0
  1 41  1  0
  1 42  1  0
  2 43  1  0
  2 44  1  0
  4 45  1  0
 12 46  1  0
 14 47  1  0
 15 48  1  0
 18 49  1  0
 22 50  1  6
 23 51  1  0
 23 52  1  0
 24 53  1  0
 24 54  1  0
 27 55  1  0
 30 56  1  0
 30 57  1  0
 32 58  1  0
 33 59  1  0
 34 60  1  0
 35 61  1  0
 38 62  1  0
M  END
>  <meeko>  (680) 
{"is_sidechain": [true], "free_energy": -11.75, "intermolecular_energy": 0.0, "internal_energy": -11.75, "cluster_size": 16, "cluster_id": 1, "rank_in_cluster": 1}

>  <_RMSD_MCS_to_ref>  (680) 
1.2634915028514344

$$$$
ligand
     RDKit          3D

 54 57  0  0  0  0  0  0  0  0999 V2000
   24.8540    9.4020    7.6050 C   0  0  0  0  0  0  0  0  0  0  0  0
   25.5230   10.7550    7.4270 C   0  0  0  0  0  0  0  0  0  0  0  0
   27.0030   10.6800    7.5810 C   0  0  0  0  0  0  0  0  0  0  0  0
   27.9070   11.7160    7.7150 C   0  0  0  0  0  0  0  0  0  0  0  0
   29.1150   11.0940    7.8410 N   0  0  0  0  0  0  0  0  0  0  0  0
   30.6200   11.8460    7.7750 S   0  0  0  0  0  6  0  0  0  0  0  0
   31.4700   11.0470    8.6350 O   0  0  0  0  0  0  0  0  0  0  0  0
   30.9000   12.0540    6.3680 O   0  0  0  0  0  0  0  0  0  0  0  0
   30.3700   13.4280    8.5290 C   0  0  0  0  0  0  0  0  0  0  0  0
   31.4740   14.2140    8.8470 C   0  0  0  0  0  0  0  0  0  0  0  0
   31.2660   15.4440    9.4630 C   0  0  0  0  0  0  0  0  0  0  0  0
   29.9670   15.8790    9.7650 C   0  0  0  0  0  0  0  0  0  0  0  0
   28.8420   15.1030    9.4520 C   0  0  0  0  0  0  0  0  0  0  0  0
   27.4920   15.4960    9.7770 N   0  0  0  0  0  0  0  0  0  0  0  0
   27.4250   16.4690   10.7690 N   0  0  0  0  0  0  0  0  0  0  0  0
   26.2580   16.9280   11.1040 C   0  0  0  0  0  0  0  0  0  0  0  0
   26.1900   18.0130   12.1850 C   0  0  0  0  0  0  0  0  0  0  0  0
   26.9920   18.9350   12.1880 O   0  0  0  0  0  0  0  0  0  0  0  0
   25.1800   17.8300   13.1070 N   0  0  0  0  0  0  0  0  0  0  0  0
   25.2180   18.5190   14.3880 C   0  0  1  0  0  0  0  0  0  0  0  0
   26.3040   17.9440   15.2870 C   0  0  0  0  0  0  0  0  0  0  0  0
   26.3710   18.7310   16.5850 C   0  0  0  0  0  0  0  0  0  0  0  0
   26.5750   20.2050   16.3290 C   0  0  0  0  0  0  0  0  0  0  0  0
   27.1880   20.9300   17.1070 O   0  0  0  0  0  0  0  0  0  0  0  0
   25.9850   20.7200   15.2030 N   0  0  0  0  0  0  0  0  0  0  0  0
   25.4630   20.0160   14.1450 C   0  0  0  0  0  0  0  0  0  0  0  0
   25.1760   20.5860   13.0930 O   0  0  0  0  0  0  0  0  0  0  0  0
   24.9810   16.4950   10.5220 C   0  0  0  0  0  0  0  0  0  0  0  0
   25.0530   15.5570    9.5790 C   0  0  0  0  0  0  0  0  0  0  0  0
   26.3490   14.9840    9.1420 C   0  0  0  0  0  0  0  0  0  0  0  0
   26.2950   14.1130    8.2770 O   0  0  0  0  0  0  0  0  0  0  0  0
   29.0720   13.8720    8.8100 C   0  0  0  0  0  0  0  0  0  0  0  0
   28.9310    9.7480    7.7690 C   0  0  0  0  0  0  0  0  0  0  0  0
   27.6580    9.4610    7.5870 N   0  0  0  0  0  0  0  0  0  0  0  0
   24.7464    9.1845    8.6779 H   0  0  0  0  0  0  0  0  0  0  0  0
   23.8606    9.4192    7.1330 H   0  0  0  0  0  0  0  0  0  0  0  0
   25.4708    8.6230    7.1330 H   0  0  0  0  0  0  0  0  0  0  0  0
   25.2911   11.1344    6.4209 H   0  0  0  0  0  0  0  0  0  0  0  0
   25.1374   11.4259    8.2088 H   0  0  0  0  0  0  0  0  0  0  0  0
   27.7001   12.7964    7.7192 H   0  0  0  0  0  0  0  0  0  0  0  0
   32.4925   13.8688    8.6154 H   0  0  0  0  0  0  0  0  0  0  0  0
   32.1270   16.0804    9.7152 H   0  0  0  0  0  0  0  0  0  0  0  0
   29.8277   16.8519   10.2590 H   0  0  0  0  0  0  0  0  0  0  0  0
   24.3941   17.2016   12.8871 H   0  0  0  0  0  0  0  0  0  0  0  0
   24.2537   18.3786   14.8984 H   0  0  0  0  0  0  0  0  0  0  0  0
   26.0737   16.8917   15.5099 H   0  0  0  0  0  0  0  0  0  0  0  0
   27.2737   18.0113   14.7721 H   0  0  0  0  0  0  0  0  0  0  0  0
   25.4297   18.5910   17.1368 H   0  0  0  0  0  0  0  0  0  0  0  0
   27.2264   18.3607   17.1691 H   0  0  0  0  0  0  0  0  0  0  0  0
   25.9269   21.7467   15.1442 H   0  0  0  0  0  0  0  0  0  0  0  0
   24.0201   16.9209   10.8463 H   0  0  0  0  0  0  0  0  0  0  0  0
   24.1247   15.1972    9.1111 H   0  0  0  0  0  0  0  0  0  0  0  0
   28.2145   13.2457    8.5230 H   0  0  0  0  0  0  0  0  0  0  0  0
   29.7348    9.0016    7.8514 H   0  0  0  0  0  0  0  0  0  0  0  0
  1  2  1  0
  2  3  1  0
  3  4  2  0
  4  5  1  0
  5  6  1  0
  6  7  2  0
  6  8  2  0
  6  9  1  0
  9 10  2  0
 10 11  1  0
 11 12  2  0
 12 13  1  0
 13 14  1  0
 14 15  1  0
 15 16  2  0
 16 17  1  0
 17 18  2  0
 17 19  1  0
 19 20  1  0
 20 21  1  0
 21 22  1  0
 22 23  1  0
 23 24  2  0
 23 25  1  0
 25 26  1  0
 26 27  2  0
 16 28  1  0
 28 29  2  0
 29 30  1  0
 30 31  2  0
 13 32  2  0
  5 33  1  0
 33 34  2  0
 34  3  1  0
 32  9  1  0
 30 14  1  0
 26 20  1  0
  1 35  1  0
  1 36  1  0
  1 37  1  0
  2 38  1  0
  2 39  1  0
  4 40  1  0
 10 41  1  0
 11 42  1  0
 12 43  1  0
 19 44  1  0
 20 45  1  1
 21 46  1  0
 21 47  1  0
 22 48  1  0
 22 49  1  0
 25 50  1  0
 28 51  1  0
 29 52  1  0
 32 53  1  0
 33 54  1  0
M  END
>  <meeko>  (681) 
{"is_sidechain": [true], "free_energy": -11.75, "intermolecular_energy": 0.0, "internal_energy": -11.75, "cluster_size": 16, "cluster_id": 1, "rank_in_cluster": 1}

>  <_RMSD_MCS_to_ref>  (681) 
0.5317137910150108

$$$$
ligand
     RDKit          3D

 62 67  0  0  0  0  0  0  0  0999 V2000
   24.8710    9.6160    7.7820 C   0  0  0  0  0  0  0  0  0  0  0  0
   25.4240   10.9650    7.3490 C   0  0  0  0  0  0  0  0  0  0  0  0
   24.9890   11.3380    5.9770 C   0  0  0  0  0  0  0  0  0  0  0  0
   24.2400   12.4260    5.5730 C   0  0  0  0  0  0  0  0  0  0  0  0
   24.1680   12.3000    4.2140 N   0  0  0  0  0  0  0  0  0  0  0  0
   23.1880   13.2150    3.2030 S   0  0  0  0  0  6  0  0  0  0  0  0
   22.3550   14.0470    4.0500 O   0  0  0  0  0  0  0  0  0  0  0  0
   22.5980   12.2350    2.3070 O   0  0  0  0  0  0  0  0  0  0  0  0
   24.2510   14.2680    2.2410 C   0  0  0  0  0  0  0  0  0  0  0  0
   24.0120   14.3410    0.8570 C   0  0  0  0  0  0  0  0  0  0  0  0
   24.7500   15.2140    0.0600 C   0  0  0  0  0  0  0  0  0  0  0  0
   25.7180   16.0280    0.6380 C   0  0  0  0  0  0  0  0  0  0  0  0
   25.9500   15.9670    2.0130 C   0  0  0  0  0  0  0  0  0  0  0  0
   25.2250   15.0860    2.8360 C   0  0  0  0  0  0  0  0  0  0  0  0
   25.5480   15.0330    4.2520 C   0  0  0  0  0  0  0  0  0  0  0  0
   24.8140   15.4110    5.2750 N   0  0  0  0  0  0  0  0  0  0  0  0
   25.6040   15.1390    6.3690 C   0  0  0  0  0  0  0  0  0  0  0  0
   25.1920   15.3940    7.7370 C   0  0  0  0  0  0  0  0  0  0  0  0
   24.0560   14.7180    8.2440 C   0  0  0  0  0  0  0  0  0  0  0  0
   23.6070   14.9290    9.5500 C   0  0  0  0  0  0  0  0  0  0  0  0
   24.3180   15.8230   10.3250 C   0  0  0  0  0  0  0  0  0  0  0  0
   25.4370   16.5050    9.8520 C   0  0  0  0  0  0  0  0  0  0  0  0
   25.8870   16.3010    8.5560 C   0  0  0  0  0  0  0  0  0  0  0  0
   25.9560   17.4210   10.9090 C   0  0  0  0  0  0  0  0  0  0  0  0
   25.1090   17.1050   12.0520 N   0  0  0  0  0  0  0  0  0  0  0  0
   25.1240   17.9300   13.2560 C   0  0  2  0  0  0  0  0  0  0  0  0
   25.8510   19.2630   13.0810 C   0  0  0  0  0  0  0  0  0  0  0  0
   25.7520   20.0630   14.3710 C   0  0  0  0  0  0  0  0  0  0  0  0
   26.3060   19.2860   15.5410 C   0  0  0  0  0  0  0  0  0  0  0  0
   26.7090   19.8380   16.5610 O   0  0  0  0  0  0  0  0  0  0  0  0
   26.2590   17.9170   15.4510 N   0  0  0  0  0  0  0  0  0  0  0  0
   25.6980   17.1550   14.4530 C   0  0  0  0  0  0  0  0  0  0  0  0
   25.5820   15.9380   14.5920 O   0  0  0  0  0  0  0  0  0  0  0  0
   24.0750   16.2470   11.7080 C   0  0  0  0  0  0  0  0  0  0  0  0
   23.1230   15.9010   12.3800 O   0  0  0  0  0  0  0  0  0  0  0  0
   26.7900   14.5860    5.9490 C   0  0  0  0  0  0  0  0  0  0  0  0
   26.7600   14.4990    4.5880 O   0  0  0  0  0  0  0  0  0  0  0  0
   24.7540   11.1300    3.8510 C   0  0  0  0  0  0  0  0  0  0  0  0
   25.3100   10.5450    4.8920 N   0  0  0  0  0  0  0  0  0  0  0  0
   24.8497    9.5640    8.8806 H   0  0  0  0  0  0  0  0  0  0  0  0
   23.8507    9.4948    7.3893 H   0  0  0  0  0  0  0  0  0  0  0  0
   25.5127    8.8135    7.3893 H   0  0  0  0  0  0  0  0  0  0  0  0
   25.0729   11.7339    8.0529 H   0  0  0  0  0  0  0  0  0  0  0  0
   26.5217   10.8942    7.3469 H   0  0  0  0  0  0  0  0  0  0  0  0
   23.8012   13.2146    6.2020 H   0  0  0  0  0  0  0  0  0  0  0  0
   23.2384   13.7056    0.4012 H   0  0  0  0  0  0  0  0  0  0  0  0
   24.5672   15.2591   -1.0238 H   0  0  0  0  0  0  0  0  0  0  0  0
   26.3007   16.7197    0.0118 H   0  0  0  0  0  0  0  0  0  0  0  0
   26.7136   16.6197    2.4613 H   0  0  0  0  0  0  0  0  0  0  0  0
   23.5157   14.0120    7.5962 H   0  0  0  0  0  0  0  0  0  0  0  0
   22.7240   14.4047    9.9442 H   0  0  0  0  0  0  0  0  0  0  0  0
   26.7692   16.8376    8.1769 H   0  0  0  0  0  0  0  0  0  0  0  0
   27.0134   17.2131   11.1296 H   0  0  0  0  0  0  0  0  0  0  0  0
   25.9225   18.4822   10.6214 H   0  0  0  0  0  0  0  0  0  0  0  0
   24.0714   18.1775   13.4576 H   0  0  0  0  0  0  0  0  0  0  0  0
   26.9090   19.0763   12.8448 H   0  0  0  0  0  0  0  0  0  0  0  0
   25.3885   19.8298   12.2596 H   0  0  0  0  0  0  0  0  0  0  0  0
   26.3224   20.9968   14.2584 H   0  0  0  0  0  0  0  0  0  0  0  0
   24.6909   20.2769   14.5669 H   0  0  0  0  0  0  0  0  0  0  0  0
   26.6971   17.3974   16.2249 H   0  0  0  0  0  0  0  0  0  0  0  0
   27.6196   14.2686    6.5978 H   0  0  0  0  0  0  0  0  0  0  0  0
   24.7631   10.7261    2.8279 H   0  0  0  0  0  0  0  0  0  0  0  0
  1  2  1  0
  2  3  1  0
  3  4  2  0
  4  5  1  0
  5  6  1  0
  6  7  2  0
  6  8  2  0
  6  9  1  0
  9 10  2  0
 10 11  1  0
 11 12  2  0
 12 13  1  0
 13 14  2  0
 14 15  1  0
 15 16  2  0
 16 17  1  0
 17 18  1  0
 18 19  2  0
 19 20  1  0
 20 21  2  0
 21 22  1  0
 22 23  2  0
 22 24  1  0
 24 25  1  0
 25 26  1  0
 26 27  1  0
 27 28  1  0
 28 29  1  0
 29 30  2  0
 29 31  1  0
 31 32  1  0
 32 33  2  0
 25 34  1  0
 34 35  2  0
 17 36  2  0
 36 37  1  0
  5 38  1  0
 38 39  2  0
 39  3  1  0
 14  9  1  0
 37 15  1  0
 23 18  1  0
 32 26  1  0
 34 21  1  0
  1 40  1  0
  1 41  1  0
  1 42  1  0
  2 43  1  0
  2 44  1  0
  4 45  1  0
 10 46  1  0
 11 47  1  0
 12 48  1  0
 13 49  1  0
 19 50  1  0
 20 51  1  0
 23 52  1  0
 24 53  1  0
 24 54  1  0
 26 55  1  1
 27 56  1  0
 27 57  1  0
 28 58  1  0
 28 59  1  0
 31 60  1  0
 36 61  1  0
 38 62  1  0
M  END
>  <meeko>  (682) 
{"is_sidechain": [true], "free_energy": -11.75, "intermolecular_energy": 0.0, "internal_energy": -11.75, "cluster_size": 8, "cluster_id": 2, "rank_in_cluster": 1}

>  <_RMSD_MCS_to_ref>  (682) 
1.9777227334806855

$$$$
ligand
     RDKit          3D

 49 52  0  0  0  0  0  0  0  0999 V2000
   24.8710    9.6160    7.7820 C   0  0  0  0  0  0  0  0  0  0  0  0
   25.4240   10.9650    7.3490 C   0  0  0  0  0  0  0  0  0  0  0  0
   26.6580   11.3290    8.0980 C   0  0  0  0  0  0  0  0  0  0  0  0
   27.9110   11.6400    7.6090 C   0  0  0  0  0  0  0  0  0  0  0  0
   28.6500   11.9170    8.7250 N   0  0  0  0  0  0  0  0  0  0  0  0
   30.1330   12.7300    8.7460 S   0  0  0  0  0  6  0  0  0  0  0  0
   30.5870   12.6110   10.1190 O   0  0  0  0  0  0  0  0  0  0  0  0
   30.8910   12.1600    7.6480 O   0  0  0  0  0  0  0  0  0  0  0  0
   29.8300   14.3140    8.4410 O   0  0  0  0  0  0  0  0  0  0  0  0
   28.5460   14.7750    8.5550 C   0  0  0  0  0  0  0  0  0  0  0  0
   27.6440   14.6390    7.5100 C   0  0  0  0  0  0  0  0  0  0  0  0
   26.3410   15.1090    7.6770 C   0  0  0  0  0  0  0  0  0  0  0  0
   25.9420   15.7150    8.8650 C   0  0  0  0  0  0  0  0  0  0  0  0
   24.6830   16.1460    9.0360 N   0  0  0  0  0  0  0  0  0  0  0  0
   24.3210   16.7220   10.2170 N   0  0  0  0  0  0  0  0  0  0  0  0
   25.2520   16.8460   11.1820 C   0  0  0  0  0  0  0  0  0  0  0  0
   24.8360   17.4680   12.4860 C   0  0  0  0  0  0  0  0  0  0  0  0
   23.6770   17.7890   12.7270 O   0  0  0  0  0  0  0  0  0  0  0  0
   25.8640   17.6600   13.3930 N   0  0  0  0  0  0  0  0  0  0  0  0
   25.6750   18.3840   14.6390 C   0  0  1  0  0  0  0  0  0  0  0  0
   26.5310   17.8150   15.7670 C   0  0  0  0  0  0  0  0  0  0  0  0
   26.3090   18.6310   17.0310 C   0  0  0  0  0  0  0  0  0  0  0  0
   26.5910   20.0960   16.7950 C   0  0  0  0  0  0  0  0  0  0  0  0
   27.0580   20.8260   17.6650 O   0  0  0  0  0  0  0  0  0  0  0  0
   26.2680   20.5930   15.5580 N   0  0  0  0  0  0  0  0  0  0  0  0
   26.0480   19.8540   14.4210 C   0  0  0  0  0  0  0  0  0  0  0  0
   26.1330   20.3660   13.3060 O   0  0  0  0  0  0  0  0  0  0  0  0
   26.5400   16.4440   11.0790 N   0  0  0  0  0  0  0  0  0  0  0  0
   26.8710   15.8750    9.9130 C   0  0  0  0  0  0  0  0  0  0  0  0
   28.1680   15.4160    9.7350 C   0  0  0  0  0  0  0  0  0  0  0  0
   27.8560   11.8020    9.8210 C   0  0  0  0  0  0  0  0  0  0  0  0
   26.6400   11.4340    9.4750 N   0  0  0  0  0  0  0  0  0  0  0  0
   24.8497    9.5640    8.8806 H   0  0  0  0  0  0  0  0  0  0  0  0
   23.8507    9.4948    7.3893 H   0  0  0  0  0  0  0  0  0  0  0  0
   25.5127    8.8135    7.3893 H   0  0  0  0  0  0  0  0  0  0  0  0
   25.6595   10.9241    6.2753 H   0  0  0  0  0  0  0  0  0  0  0  0
   24.6609   11.7285    7.5605 H   0  0  0  0  0  0  0  0  0  0  0  0
   28.2400   11.6603    6.5595 H   0  0  0  0  0  0  0  0  0  0  0  0
   27.9512   14.1680    6.5646 H   0  0  0  0  0  0  0  0  0  0  0  0
   25.6170   14.9989    6.8563 H   0  0  0  0  0  0  0  0  0  0  0  0
   26.7953   17.2764   13.1773 H   0  0  0  0  0  0  0  0  0  0  0  0
   24.6198   18.2841   14.9331 H   0  0  0  0  0  0  0  0  0  0  0  0
   26.2467   16.7685   15.9512 H   0  0  0  0  0  0  0  0  0  0  0  0
   27.5924   17.8612   15.4817 H   0  0  0  0  0  0  0  0  0  0  0  0
   25.2638   18.5147   17.3536 H   0  0  0  0  0  0  0  0  0  0  0  0
   26.9985   18.2651   17.8061 H   0  0  0  0  0  0  0  0  0  0  0  0
   26.1824   21.6160   15.4737 H   0  0  0  0  0  0  0  0  0  0  0  0
   28.9087   15.5595   10.5355 H   0  0  0  0  0  0  0  0  0  0  0  0
   28.1834   11.9902   10.8542 H   0  0  0  0  0  0  0  0  0  0  0  0
  1  2  1  0
  2  3  1  0
  3  4  2  0
  4  5  1  0
  5  6  1  0
  6  7  2  0
  6  8  2  0
  6  9  1  0
  9 10  1  0
 10 11  2  0
 11 12  1  0
 12 13  2  0
 13 14  1  0
 14 15  2  0
 15 16  1  0
 16 17  1  0
 17 18  2  0
 17 19  1  0
 19 20  1  0
 20 21  1  0
 21 22  1  0
 22 23  1  0
 23 24  2  0
 23 25  1  0
 25 26  1  0
 26 27  2  0
 16 28  2  0
 28 29  1  0
 29 30  2  0
  5 31  1  0
 31 32  2  0
 32  3  1  0
 30 10  1  0
 29 13  1  0
 26 20  1  0
  1 33  1  0
  1 34  1  0
  1 35  1  0
  2 36  1  0
  2 37  1  0
  4 38  1  0
 11 39  1  0
 12 40  1  0
 19 41  1  0
 20 42  1  1
 21 43  1  0
 21 44  1  0
 22 45  1  0
 22 46  1  0
 25 47  1  0
 30 48  1  0
 31 49  1  0
M  END
>  <meeko>  (683) 
{"is_sidechain": [true], "free_energy": -11.75, "intermolecular_energy": 0.0, "internal_energy": -11.75, "cluster_size": 20, "cluster_id": 1, "rank_in_cluster": 1}

>  <_RMSD_MCS_to_ref>  (683) 
0.9487027400028359

$$$$
ligand
     RDKit          3D

 46 49  0  0  0  0  0  0  0  0999 V2000
   24.8710    9.6160    7.7820 C   0  0  0  0  0  0  0  0  0  0  0  0
   25.4240   10.9650    7.3490 C   0  0  0  0  0  0  0  0  0  0  0  0
   26.8080   11.1980    7.8460 C   0  0  0  0  0  0  0  0  0  0  0  0
   27.2310   11.9950    8.8930 C   0  0  0  0  0  0  0  0  0  0  0  0
   28.5840   11.8230    8.9200 N   0  0  0  0  0  0  0  0  0  0  0  0
   29.6530   12.5940    9.9730 S   0  0  0  0  0  6  0  0  0  0  0  0
   29.0810   12.3430   11.2850 O   0  0  0  0  0  0  0  0  0  0  0  0
   30.9740   12.0920    9.6390 O   0  0  0  0  0  0  0  0  0  0  0  0
   29.5970   14.2020    9.7200 O   0  0  0  0  0  0  0  0  0  0  0  0
   28.3830   14.7800    9.4550 C   0  0  0  0  0  0  0  0  0  0  0  0
   27.9490   14.7970    8.1520 C   0  0  0  0  0  0  0  0  0  0  0  0
   26.7410   15.4140    7.9450 C   0  0  0  0  0  0  0  0  0  0  0  0
   26.0220   15.9840    8.9280 N   0  0  0  0  0  0  0  0  0  0  0  0
   26.5540   15.9390   10.1620 C   0  0  0  0  0  0  0  0  0  0  0  0
   25.8080   16.5350   11.2550 C   0  0  0  0  0  0  0  0  0  0  0  0
   26.3100   17.4350   12.1700 C   0  0  0  0  0  0  0  0  0  0  0  0
   25.2780   17.6480   13.0310 N   0  0  0  0  0  0  0  0  0  0  0  0
   25.2940   18.3650   14.2970 C   0  0  1  0  0  0  0  0  0  0  0  0
   26.3110   17.7440   15.2560 C   0  0  0  0  0  0  0  0  0  0  0  0
   26.3180   18.5050   16.5710 C   0  0  0  0  0  0  0  0  0  0  0  0
   26.6000   19.9710   16.3500 C   0  0  0  0  0  0  0  0  0  0  0  0
   27.0810   20.6900   17.2200 O   0  0  0  0  0  0  0  0  0  0  0  0
   26.2140   20.4880   15.1390 N   0  0  0  0  0  0  0  0  0  0  0  0
   25.5660   19.8470   14.1060 C   0  0  0  0  0  0  0  0  0  0  0  0
   25.1940   20.4940   13.1300 O   0  0  0  0  0  0  0  0  0  0  0  0
   24.1920   16.9380   12.6740 N   0  0  0  0  0  0  0  0  0  0  0  0
   24.5000   16.2650   11.5690 N   0  0  0  0  0  0  0  0  0  0  0  0
   27.7320   15.3560   10.4730 N   0  0  0  0  0  0  0  0  0  0  0  0
   28.9470   10.9720    7.9250 C   0  0  0  0  0  0  0  0  0  0  0  0
   27.8890   10.5770    7.2430 N   0  0  0  0  0  0  0  0  0  0  0  0
   24.8497    9.5640    8.8806 H   0  0  0  0  0  0  0  0  0  0  0  0
   23.8507    9.4948    7.3893 H   0  0  0  0  0  0  0  0  0  0  0  0
   25.5127    8.8135    7.3893 H   0  0  0  0  0  0  0  0  0  0  0  0
   25.4318   11.0071    6.2498 H   0  0  0  0  0  0  0  0  0  0  0  0
   24.7781   11.7452    7.7781 H   0  0  0  0  0  0  0  0  0  0  0  0
   26.6168   12.6244    9.5537 H   0  0  0  0  0  0  0  0  0  0  0  0
   28.5289   14.3477    7.3323 H   0  0  0  0  0  0  0  0  0  0  0  0
   26.3397   15.4439    6.9212 H   0  0  0  0  0  0  0  0  0  0  0  0
   27.3157   17.8798   12.1980 H   0  0  0  0  0  0  0  0  0  0  0  0
   24.2918   18.2724   14.7408 H   0  0  0  0  0  0  0  0  0  0  0  0
   26.0406   16.6945   15.4440 H   0  0  0  0  0  0  0  0  0  0  0  0
   27.3123   17.7962   14.8035 H   0  0  0  0  0  0  0  0  0  0  0  0
   25.3354   18.3971   17.0535 H   0  0  0  0  0  0  0  0  0  0  0  0
   27.1109   18.0896   17.2103 H   0  0  0  0  0  0  0  0  0  0  0  0
   26.4370   21.4813   14.9824 H   0  0  0  0  0  0  0  0  0  0  0  0
   29.9799   10.6561    7.7169 H   0  0  0  0  0  0  0  0  0  0  0  0
  1  2  1  0
  2  3  1  0
  3  4  2  0
  4  5  1  0
  5  6  1  0
  6  7  2  0
  6  8  2  0
  6  9  1  0
  9 10  1  0
 10 11  2  0
 11 12  1  0
 12 13  2  0
 13 14  1  0
 14 15  1  0
 15 16  2  0
 16 17  1  0
 17 18  1  0
 18 19  1  0
 19 20  1  0
 20 21  1  0
 21 22  2  0
 21 23  1  0
 23 24  1  0
 24 25  2  0
 17 26  1  0
 26 27  2  0
 14 28  2  0
  5 29  1  0
 29 30  2  0
 30  3  1  0
 28 10  1  0
 27 15  1  0
 24 18  1  0
  1 31  1  0
  1 32  1  0
  1 33  1  0
  2 34  1  0
  2 35  1  0
  4 36  1  0
 11 37  1  0
 12 38  1  0
 16 39  1  0
 18 40  1  1
 19 41  1  0
 19 42  1  0
 20 43  1  0
 20 44  1  0
 23 45  1  0
 29 46  1  0
M  END
>  <meeko>  (684) 
{"is_sidechain": [true], "free_energy": -11.74, "intermolecular_energy": 0.0, "internal_energy": -11.74, "cluster_size": 15, "cluster_id": 1, "rank_in_cluster": 1}

>  <_RMSD_MCS_to_ref>  (684) 
0.5566468060329334

$$$$
ligand
     RDKit          3D

 61 66  0  0  0  0  0  0  0  0999 V2000
   24.8710    9.6160    7.7820 C   0  0  0  0  0  0  0  0  0  0  0  0
   25.4240   10.9650    7.3490 C   0  0  0  0  0  0  0  0  0  0  0  0
   24.9730   11.3440    5.9820 C   0  0  0  0  0  0  0  0  0  0  0  0
   24.2880   12.4730    5.5740 C   0  0  0  0  0  0  0  0  0  0  0  0
   24.1290   12.2970    4.2290 N   0  0  0  0  0  0  0  0  0  0  0  0
   23.4110   13.3980    3.1770 S   0  0  0  0  0  6  0  0  0  0  0  0
   23.5950   12.8570    1.8420 O   0  0  0  0  0  0  0  0  0  0  0  0
   22.0750   13.5800    3.7190 O   0  0  0  0  0  0  0  0  0  0  0  0
   24.1850   14.8230    3.3050 O   0  0  0  0  0  0  0  0  0  0  0  0
   25.1360   14.9410    4.2870 C   0  0  0  0  0  0  0  0  0  0  0  0
   24.6770   15.1300    5.5340 N   0  0  0  0  0  0  0  0  0  0  0  0
   25.6150   15.3020    6.4820 C   0  0  0  0  0  0  0  0  0  0  0  0
   25.1680   15.5160    7.8760 C   0  0  0  0  0  0  0  0  0  0  0  0
   24.0530   14.8150    8.4110 C   0  0  0  0  0  0  0  0  0  0  0  0
   23.6140   15.0010    9.7270 C   0  0  0  0  0  0  0  0  0  0  0  0
   24.3070   15.9040   10.5040 C   0  0  0  0  0  0  0  0  0  0  0  0
   25.3990   16.6160   10.0240 C   0  0  0  0  0  0  0  0  0  0  0  0
   25.8360   16.4350    8.7200 C   0  0  0  0  0  0  0  0  0  0  0  0
   25.9190   17.5270   11.0850 C   0  0  0  0  0  0  0  0  0  0  0  0
   25.0950   17.1810   12.2350 N   0  0  0  0  0  0  0  0  0  0  0  0
   25.1180   17.9840   13.4520 C   0  0  2  0  0  0  0  0  0  0  0  0
   25.8380   19.3240   13.2930 C   0  0  0  0  0  0  0  0  0  0  0  0
   25.7490   20.1020   14.5960 C   0  0  0  0  0  0  0  0  0  0  0  0
   26.3170   19.3080   15.7480 C   0  0  0  0  0  0  0  0  0  0  0  0
   26.7260   19.8450   16.7750 O   0  0  0  0  0  0  0  0  0  0  0  0
   26.2760   17.9410   15.6350 N   0  0  0  0  0  0  0  0  0  0  0  0
   25.7050   17.1920   14.6310 C   0  0  0  0  0  0  0  0  0  0  0  0
   25.5910   15.9740   14.7550 O   0  0  0  0  0  0  0  0  0  0  0  0
   24.0740   16.3050   11.8950 C   0  0  0  0  0  0  0  0  0  0  0  0
   23.1390   15.9330   12.5770 O   0  0  0  0  0  0  0  0  0  0  0  0
   26.9400   15.2930    6.2470 N   0  0  0  0  0  0  0  0  0  0  0  0
   27.3610   15.1210    4.9880 C   0  0  0  0  0  0  0  0  0  0  0  0
   28.7230   15.1260    4.7160 C   0  0  0  0  0  0  0  0  0  0  0  0
   29.2190   14.9570    3.4180 C   0  0  0  0  0  0  0  0  0  0  0  0
   28.3380   14.7800    2.3590 C   0  0  0  0  0  0  0  0  0  0  0  0
   26.9670   14.7720    2.6040 C   0  0  0  0  0  0  0  0  0  0  0  0
   26.4780   14.9410    3.9220 C   0  0  0  0  0  0  0  0  0  0  0  0
   24.7140   11.1320    3.8560 C   0  0  0  0  0  0  0  0  0  0  0  0
   25.2350   10.5230    4.9030 N   0  0  0  0  0  0  0  0  0  0  0  0
   24.8497    9.5640    8.8806 H   0  0  0  0  0  0  0  0  0  0  0  0
   23.8507    9.4948    7.3893 H   0  0  0  0  0  0  0  0  0  0  0  0
   25.5127    8.8135    7.3893 H   0  0  0  0  0  0  0  0  0  0  0  0
   25.0837   11.7323    8.0599 H   0  0  0  0  0  0  0  0  0  0  0  0
   26.5215   10.8917    7.3348 H   0  0  0  0  0  0  0  0  0  0  0  0
   23.9490   13.3185    6.1906 H   0  0  0  0  0  0  0  0  0  0  0  0
   23.5165   14.1015    7.7683 H   0  0  0  0  0  0  0  0  0  0  0  0
   22.7502   14.4484   10.1252 H   0  0  0  0  0  0  0  0  0  0  0  0
   26.6988   17.0038    8.3432 H   0  0  0  0  0  0  0  0  0  0  0  0
   26.9830   17.3344   11.2869 H   0  0  0  0  0  0  0  0  0  0  0  0
   25.8639   18.5913   10.8125 H   0  0  0  0  0  0  0  0  0  0  0  0
   24.0660   18.2227   13.6674 H   0  0  0  0  0  0  0  0  0  0  0  0
   26.8943   19.1458   13.0432 H   0  0  0  0  0  0  0  0  0  0  0  0
   25.3643   19.9025   12.4862 H   0  0  0  0  0  0  0  0  0  0  0  0
   26.3151   21.0395   14.4931 H   0  0  0  0  0  0  0  0  0  0  0  0
   24.6892   20.3089   14.8056 H   0  0  0  0  0  0  0  0  0  0  0  0
   26.7275   17.4107   16.3939 H   0  0  0  0  0  0  0  0  0  0  0  0
   29.4325   15.2669    5.5447 H   0  0  0  0  0  0  0  0  0  0  0  0
   30.3040   14.9644    3.2371 H   0  0  0  0  0  0  0  0  0  0  0  0
   28.7197   14.6473    1.3359 H   0  0  0  0  0  0  0  0  0  0  0  0
   26.2619   14.6340    1.7710 H   0  0  0  0  0  0  0  0  0  0  0  0
   24.7490   10.7490    2.8254 H   0  0  0  0  0  0  0  0  0  0  0  0
  1  2  1  0
  2  3  1  0
  3  4  2  0
  4  5  1  0
  5  6  1  0
  6  7  2  0
  6  8  2  0
  6  9  1  0
  9 10  1  0
 10 11  2  0
 11 12  1  0
 12 13  1  0
 13 14  2  0
 14 15  1  0
 15 16  2  0
 16 17  1  0
 17 18  2  0
 17 19  1  0
 19 20  1  0
 20 21  1  0
 21 22  1  0
 22 23  1  0
 23 24  1  0
 24 25  2  0
 24 26  1  0
 26 27  1  0
 27 28  2  0
 20 29  1  0
 29 30  2  0
 12 31  2  0
 31 32  1  0
 32 33  2  0
 33 34  1  0
 34 35  2  0
 35 36  1  0
 36 37  2  0
  5 38  1  0
 38 39  2  0
 39  3  1  0
 37 10  1  0
 18 13  1  0
 27 21  1  0
 37 32  1  0
 29 16  1  0
  1 40  1  0
  1 41  1  0
  1 42  1  0
  2 43  1  0
  2 44  1  0
  4 45  1  0
 14 46  1  0
 15 47  1  0
 18 48  1  0
 19 49  1  0
 19 50  1  0
 21 51  1  1
 22 52  1  0
 22 53  1  0
 23 54  1  0
 23 55  1  0
 26 56  1  0
 33 57  1  0
 34 58  1  0
 35 59  1  0
 36 60  1  0
 38 61  1  0
M  END
>  <meeko>  (685) 
{"is_sidechain": [true], "free_energy": -11.74, "intermolecular_energy": 0.0, "internal_energy": -11.74, "cluster_size": 8, "cluster_id": 1, "rank_in_cluster": 1}

>  <_RMSD_MCS_to_ref>  (685) 
1.8724783464421524

$$$$
ligand
     RDKit          3D

 63 68  0  0  0  0  0  0  0  0999 V2000
   24.8710    9.6160    7.7820 C   0  0  0  0  0  0  0  0  0  0  0  0
   25.4240   10.9650    7.3490 C   0  0  0  0  0  0  0  0  0  0  0  0
   25.0780   11.2890    5.9390 C   0  0  0  0  0  0  0  0  0  0  0  0
   24.1480   12.1890    5.4570 C   0  0  0  0  0  0  0  0  0  0  0  0
   24.2220   12.0520    4.0990 N   0  0  0  0  0  0  0  0  0  0  0  0
   23.4320   13.0150    2.9660 S   0  0  0  0  0  6  0  0  0  0  0  0
   22.0810   13.1660    3.4810 O   0  0  0  0  0  0  0  0  0  0  0  0
   23.6710   12.3730    1.6870 O   0  0  0  0  0  0  0  0  0  0  0  0
   24.1580   14.4800    3.0120 O   0  0  0  0  0  0  0  0  0  0  0  0
   25.0760   14.6920    3.9960 C   0  0  0  0  0  0  0  0  0  0  0  0
   24.6670   14.9160    5.3100 C   0  0  0  0  0  0  0  0  0  0  0  0
   25.6140   15.1310    6.3400 C   0  0  0  0  0  0  0  0  0  0  0  0
   25.1700   15.3870    7.7220 C   0  0  0  0  0  0  0  0  0  0  0  0
   24.0670   14.6810    8.2670 C   0  0  0  0  0  0  0  0  0  0  0  0
   23.6260   14.9080    9.5740 C   0  0  0  0  0  0  0  0  0  0  0  0
   24.3080   15.8470   10.3190 C   0  0  0  0  0  0  0  0  0  0  0  0
   25.3910   16.5600    9.8170 C   0  0  0  0  0  0  0  0  0  0  0  0
   25.8330   16.3420    8.5220 C   0  0  0  0  0  0  0  0  0  0  0  0
   25.8930   17.5140   10.8480 C   0  0  0  0  0  0  0  0  0  0  0  0
   25.0740   17.1930   12.0090 N   0  0  0  0  0  0  0  0  0  0  0  0
   25.0770   18.0420   13.1950 C   0  0  2  0  0  0  0  0  0  0  0  0
   25.6610   19.4340   12.9550 C   0  0  0  0  0  0  0  0  0  0  0  0
   25.5580   20.2510   14.2340 C   0  0  0  0  0  0  0  0  0  0  0  0
   26.2500   19.5570   15.3840 C   0  0  0  0  0  0  0  0  0  0  0  0
   26.6620   20.1690   16.3660 O   0  0  0  0  0  0  0  0  0  0  0  0
   26.3250   18.1880   15.3240 N   0  0  0  0  0  0  0  0  0  0  0  0
   25.7880   17.3530   14.3700 C   0  0  0  0  0  0  0  0  0  0  0  0
   25.8050   16.1330   14.5330 O   0  0  0  0  0  0  0  0  0  0  0  0
   24.0690   16.2880   11.6980 C   0  0  0  0  0  0  0  0  0  0  0  0
   23.1420   15.9170   12.3900 O   0  0  0  0  0  0  0  0  0  0  0  0
   26.9880   15.1000    6.0190 C   0  0  0  0  0  0  0  0  0  0  0  0
   27.3860   14.8620    4.7100 C   0  0  0  0  0  0  0  0  0  0  0  0
   26.4290   14.6580    3.7270 C   0  0  0  0  0  0  0  0  0  0  0  0
   27.1110   14.4360    2.4610 C   0  0  0  0  0  0  0  0  0  0  0  0
   26.5380   14.2240    1.4070 O   0  0  0  0  0  0  0  0  0  0  0  0
   28.6020   14.5110    2.6730 C   0  0  0  0  0  0  0  0  0  0  0  0
   28.7810   14.7940    4.1750 C   0  0  0  0  0  0  0  0  0  0  0  0
   25.2150   11.1770    3.7940 C   0  0  0  0  0  0  0  0  0  0  0  0
   25.7310   10.6670    4.8950 N   0  0  0  0  0  0  0  0  0  0  0  0
   24.8497    9.5640    8.8806 H   0  0  0  0  0  0  0  0  0  0  0  0
   23.8507    9.4948    7.3893 H   0  0  0  0  0  0  0  0  0  0  0  0
   25.5127    8.8135    7.3893 H   0  0  0  0  0  0  0  0  0  0  0  0
   25.0080   11.7449    8.0038 H   0  0  0  0  0  0  0  0  0  0  0  0
   26.5204   10.9202    7.4254 H   0  0  0  0  0  0  0  0  0  0  0  0
   23.4967   12.8621    6.0339 H   0  0  0  0  0  0  0  0  0  0  0  0
   23.5935   14.9258    5.5496 H   0  0  0  0  0  0  0  0  0  0  0  0
   23.5462   13.9370    7.6463 H   0  0  0  0  0  0  0  0  0  0  0  0
   22.7689   14.3594    9.9917 H   0  0  0  0  0  0  0  0  0  0  0  0
   26.6891   16.9057    8.1229 H   0  0  0  0  0  0  0  0  0  0  0  0
   26.9599   17.3466   11.0570 H   0  0  0  0  0  0  0  0  0  0  0  0
   25.8190   18.5674   10.5401 H   0  0  0  0  0  0  0  0  0  0  0  0
   24.0183   18.1925   13.4531 H   0  0  0  0  0  0  0  0  0  0  0  0
   26.7171   19.3435   12.6611 H   0  0  0  0  0  0  0  0  0  0  0  0
   25.1002   19.9350   12.1522 H   0  0  0  0  0  0  0  0  0  0  0  0
   26.0284   21.2320   14.0718 H   0  0  0  0  0  0  0  0  0  0  0  0
   24.4940   20.3677   14.4876 H   0  0  0  0  0  0  0  0  0  0  0  0
   26.8462   17.7296   16.0850 H   0  0  0  0  0  0  0  0  0  0  0  0
   27.7415   15.2639    6.8034 H   0  0  0  0  0  0  0  0  0  0  0  0
   29.0790   13.5581    2.4003 H   0  0  0  0  0  0  0  0  0  0  0  0
   29.0678   15.2882    2.0493 H   0  0  0  0  0  0  0  0  0  0  0  0
   29.3445   13.9829    4.6594 H   0  0  0  0  0  0  0  0  0  0  0  0
   29.3474   15.7181    4.3628 H   0  0  0  0  0  0  0  0  0  0  0  0
   25.5422   10.9290    2.7735 H   0  0  0  0  0  0  0  0  0  0  0  0
  1  2  1  0
  2  3  1  0
  3  4  2  0
  4  5  1  0
  5  6  1  0
  6  7  2  0
  6  8  2  0
  6  9  1  0
  9 10  1  0
 10 11  2  0
 11 12  1  0
 12 13  1  0
 13 14  2  0
 14 15  1  0
 15 16  2  0
 16 17  1  0
 17 18  2  0
 17 19  1  0
 19 20  1  0
 20 21  1  0
 21 22  1  0
 22 23  1  0
 23 24  1  0
 24 25  2  0
 24 26  1  0
 26 27  1  0
 27 28  2  0
 20 29  1  0
 29 30  2  0
 12 31  2  0
 31 32  1  0
 32 33  2  0
 33 34  1  0
 34 35  2  0
 34 36  1  0
 36 37  1  0
  5 38  1  0
 38 39  2  0
 39  3  1  0
 33 10  1  0
 18 13  1  0
 27 21  1  0
 37 32  1  0
 29 16  1  0
  1 40  1  0
  1 41  1  0
  1 42  1  0
  2 43  1  0
  2 44  1  0
  4 45  1  0
 11 46  1  0
 14 47  1  0
 15 48  1  0
 18 49  1  0
 19 50  1  0
 19 51  1  0
 21 52  1  1
 22 53  1  0
 22 54  1  0
 23 55  1  0
 23 56  1  0
 26 57  1  0
 31 58  1  0
 36 59  1  0
 36 60  1  0
 37 61  1  0
 37 62  1  0
 38 63  1  0
M  END
>  <meeko>  (686) 
{"is_sidechain": [true], "free_energy": -11.74, "intermolecular_energy": 0.0, "internal_energy": -11.74, "cluster_size": 3, "cluster_id": 2, "rank_in_cluster": 1}

>  <_RMSD_MCS_to_ref>  (686) 
1.978268674211979

$$$$
ligand
     RDKit          3D

 48 51  0  0  0  0  0  0  0  0999 V2000
   24.8710    9.6160    7.7820 C   0  0  0  0  0  0  0  0  0  0  0  0
   25.4240   10.9650    7.3490 C   0  0  0  0  0  0  0  0  0  0  0  0
   26.5770   11.3950    8.1850 C   0  0  0  0  0  0  0  0  0  0  0  0
   27.6260   12.2310    7.8570 C   0  0  0  0  0  0  0  0  0  0  0  0
   28.4040   12.2480    8.9800 N   0  0  0  0  0  0  0  0  0  0  0  0
   29.7080   13.2760    9.2570 S   0  0  0  0  0  6  0  0  0  0  0  0
   30.6730   12.9560    8.2190 O   0  0  0  0  0  0  0  0  0  0  0  0
   30.0320   13.1080   10.6600 O   0  0  0  0  0  0  0  0  0  0  0  0
   29.1540   14.7970    9.0210 O   0  0  0  0  0  0  0  0  0  0  0  0
   27.9630   15.2330    9.4440 C   0  0  0  0  0  0  0  0  0  0  0  0
   27.6750   16.0950   10.4850 C   0  0  0  0  0  0  0  0  0  0  0  0
   26.2630   16.2500   10.5560 C   0  0  0  0  0  0  0  0  0  0  0  0
   25.3330   16.9450   11.3290 C   0  0  0  0  0  0  0  0  0  0  0  0
   25.7320   17.8380   12.4530 C   0  0  0  0  0  0  0  0  0  0  0  0
   26.8340   18.3680   12.5100 O   0  0  0  0  0  0  0  0  0  0  0  0
   24.7650   18.0010   13.4220 N   0  0  0  0  0  0  0  0  0  0  0  0
   25.0200   18.6990   14.6690 C   0  0  1  0  0  0  0  0  0  0  0  0
   26.0370   17.9660   15.5370 C   0  0  0  0  0  0  0  0  0  0  0  0
   26.2760   18.7540   16.8140 C   0  0  0  0  0  0  0  0  0  0  0  0
   26.7110   20.1690   16.5130 C   0  0  0  0  0  0  0  0  0  0  0  0
   27.4910   20.7860   17.2330 O   0  0  0  0  0  0  0  0  0  0  0  0
   26.1650   20.7550   15.4000 N   0  0  0  0  0  0  0  0  0  0  0  0
   25.5470   20.1040   14.3600 C   0  0  0  0  0  0  0  0  0  0  0  0
   25.4210   20.6460   13.2620 O   0  0  0  0  0  0  0  0  0  0  0  0
   23.9990   16.8200   11.0760 N   0  0  0  0  0  0  0  0  0  0  0  0
   23.6350   16.0090   10.0670 C   0  0  0  0  0  0  0  0  0  0  0  0
   24.4330   15.2910    9.2590 N   0  0  0  0  0  0  0  0  0  0  0  0
   25.7300   15.4570    9.5540 C   0  0  0  0  0  0  0  0  0  0  0  0
   26.7610   14.8460    8.8950 N   0  0  0  0  0  0  0  0  0  0  0  0
   27.7960   11.5230    9.9530 C   0  0  0  0  0  0  0  0  0  0  0  0
   26.6950   10.9680    9.4930 N   0  0  0  0  0  0  0  0  0  0  0  0
   24.8497    9.5640    8.8806 H   0  0  0  0  0  0  0  0  0  0  0  0
   23.8507    9.4948    7.3893 H   0  0  0  0  0  0  0  0  0  0  0  0
   25.5127    8.8135    7.3893 H   0  0  0  0  0  0  0  0  0  0  0  0
   25.7531   10.8932    6.3018 H   0  0  0  0  0  0  0  0  0  0  0  0
   24.6245   11.7112    7.4675 H   0  0  0  0  0  0  0  0  0  0  0  0
   27.7963   12.7618    6.9087 H   0  0  0  0  0  0  0  0  0  0  0  0
   28.4108   16.5779   11.1448 H   0  0  0  0  0  0  0  0  0  0  0  0
   23.8258   17.6127   13.2548 H   0  0  0  0  0  0  0  0  0  0  0  0
   24.0729   18.7495   15.2262 H   0  0  0  0  0  0  0  0  0  0  0  0
   25.6512   16.9673   15.7894 H   0  0  0  0  0  0  0  0  0  0  0  0
   26.9838   17.8654   14.9861 H   0  0  0  0  0  0  0  0  0  0  0  0
   25.3438   18.7822   17.3973 H   0  0  0  0  0  0  0  0  0  0  0  0
   27.0765   18.2584   17.3829 H   0  0  0  0  0  0  0  0  0  0  0  0
   26.2238   21.7814   15.3378 H   0  0  0  0  0  0  0  0  0  0  0  0
   22.5543   15.9231    9.8808 H   0  0  0  0  0  0  0  0  0  0  0  0
   26.6542   14.1933    8.1054 H   0  0  0  0  0  0  0  0  0  0  0  0
   28.1708   11.4146   10.9815 H   0  0  0  0  0  0  0  0  0  0  0  0
  1  2  1  0
  2  3  1  0
  3  4  2  0
  4  5  1  0
  5  6  1  0
  6  7  2  0
  6  8  2  0
  6  9  1  0
  9 10  1  0
 10 11  2  0
 11 12  1  0
 12 13  2  0
 13 14  1  0
 14 15  2  0
 14 16  1  0
 16 17  1  0
 17 18  1  0
 18 19  1  0
 19 20  1  0
 20 21  2  0
 20 22  1  0
 22 23  1  0
 23 24  2  0
 13 25  1  0
 25 26  2  0
 26 27  1  0
 27 28  2  0
 28 29  1  0
  5 30  1  0
 30 31  2  0
 31  3  1  0
 29 10  1  0
 28 12  1  0
 23 17  1  0
  1 32  1  0
  1 33  1  0
  1 34  1  0
  2 35  1  0
  2 36  1  0
  4 37  1  0
 11 38  1  0
 16 39  1  0
 17 40  1  1
 18 41  1  0
 18 42  1  0
 19 43  1  0
 19 44  1  0
 22 45  1  0
 26 46  1  0
 29 47  1  0
 30 48  1  0
M  END
>  <meeko>  (687) 
{"is_sidechain": [true], "free_energy": -11.74, "intermolecular_energy": 0.0, "internal_energy": -11.74, "cluster_size": 16, "cluster_id": 1, "rank_in_cluster": 1}

>  <_RMSD_MCS_to_ref>  (687) 
0.6238822894674216

$$$$
ligand
     RDKit          3D

 61 66  0  0  0  0  0  0  0  0999 V2000
   24.8540    9.4020    7.6050 C   0  0  0  0  0  0  0  0  0  0  0  0
   25.5230   10.7550    7.4270 C   0  0  0  0  0  0  0  0  0  0  0  0
   25.1770   11.3870    6.1250 C   0  0  0  0  0  0  0  0  0  0  0  0
   25.8630   12.3580    5.4220 C   0  0  0  0  0  0  0  0  0  0  0  0
   25.0980   12.5670    4.3090 N   0  0  0  0  0  0  0  0  0  0  0  0
   25.4330   13.6610    3.0800 S   0  0  0  0  0  6  0  0  0  0  0  0
   26.5400   13.1190    2.3130 O   0  0  0  0  0  0  0  0  0  0  0  0
   24.1380   13.9040    2.4650 O   0  0  0  0  0  0  0  0  0  0  0  0
   25.9550   15.1700    3.8300 C   0  0  0  0  0  0  0  0  0  0  0  0
   26.6960   16.0690    3.0450 C   0  0  0  0  0  0  0  0  0  0  0  0
   27.1280   17.2690    3.5930 C   0  0  0  0  0  0  0  0  0  0  0  0
   26.8200   17.5630    4.9180 C   0  0  0  0  0  0  0  0  0  0  0  0
   26.0840   16.6560    5.7010 C   0  0  0  0  0  0  0  0  0  0  0  0
   25.7770   16.9500    7.0400 C   0  0  0  0  0  0  0  0  0  0  0  0
   25.0470   16.0550    7.8270 C   0  0  0  0  0  0  0  0  0  0  0  0
   24.7160   16.3400    9.2310 C   0  0  0  0  0  0  0  0  0  0  0  0
   23.5900   15.7300    9.8440 C   0  0  0  0  0  0  0  0  0  0  0  0
   23.2530   15.9840   11.1770 C   0  0  0  0  0  0  0  0  0  0  0  0
   24.0570   16.8590   11.8780 C   0  0  0  0  0  0  0  0  0  0  0  0
   25.1690   17.4720   11.3130 C   0  0  0  0  0  0  0  0  0  0  0  0
   25.5110   17.2220    9.9930 C   0  0  0  0  0  0  0  0  0  0  0  0
   25.8430   18.3350   12.3270 C   0  0  0  0  0  0  0  0  0  0  0  0
   24.9480   18.2430   13.4720 N   0  0  0  0  0  0  0  0  0  0  0  0
   25.3370   18.7620   14.7790 C   0  0  1  0  0  0  0  0  0  0  0  0
   26.4800   17.9880   15.4350 C   0  0  0  0  0  0  0  0  0  0  0  0
   26.7590   18.5720   16.8110 C   0  0  0  0  0  0  0  0  0  0  0  0
   27.0750   20.0480   16.7260 C   0  0  0  0  0  0  0  0  0  0  0  0
   27.7220   20.6280   17.5920 O   0  0  0  0  0  0  0  0  0  0  0  0
   26.5300   20.7350   15.6710 N   0  0  0  0  0  0  0  0  0  0  0  0
   25.6730   20.2600   14.7040 C   0  0  0  0  0  0  0  0  0  0  0  0
   25.1430   21.0350   13.9090 O   0  0  0  0  0  0  0  0  0  0  0  0
   23.9460   17.3050   13.2720 C   0  0  0  0  0  0  0  0  0  0  0  0
   23.1250   16.8900   14.0660 O   0  0  0  0  0  0  0  0  0  0  0  0
   24.6580   14.8800    7.1980 C   0  0  0  0  0  0  0  0  0  0  0  0
   24.9430   14.5600    5.9110 N   0  0  0  0  0  0  0  0  0  0  0  0
   25.6410   15.4310    5.1600 C   0  0  0  0  0  0  0  0  0  0  0  0
   24.0070   11.7590    4.3590 C   0  0  0  0  0  0  0  0  0  0  0  0
   24.0260   11.0230    5.4520 N   0  0  0  0  0  0  0  0  0  0  0  0
   24.7464    9.1845    8.6779 H   0  0  0  0  0  0  0  0  0  0  0  0
   23.8606    9.4192    7.1330 H   0  0  0  0  0  0  0  0  0  0  0  0
   25.4708    8.6230    7.1330 H   0  0  0  0  0  0  0  0  0  0  0  0
   25.1986   11.4202    8.2408 H   0  0  0  0  0  0  0  0  0  0  0  0
   26.6116   10.5984    7.4473 H   0  0  0  0  0  0  0  0  0  0  0  0
   26.8081   12.8501    5.6952 H   0  0  0  0  0  0  0  0  0  0  0  0
   26.9331   15.8228    1.9995 H   0  0  0  0  0  0  0  0  0  0  0  0
   27.7078   17.9802    2.9863 H   0  0  0  0  0  0  0  0  0  0  0  0
   27.1556   18.5141    5.3570 H   0  0  0  0  0  0  0  0  0  0  0  0
   26.1169   17.9008    7.4764 H   0  0  0  0  0  0  0  0  0  0  0  0
   22.9671   15.0403    9.2555 H   0  0  0  0  0  0  0  0  0  0  0  0
   22.3817   15.5054   11.6479 H   0  0  0  0  0  0  0  0  0  0  0  0
   26.3917   17.7055    9.5451 H   0  0  0  0  0  0  0  0  0  0  0  0
   26.8434   17.9497   12.5736 H   0  0  0  0  0  0  0  0  0  0  0  0
   26.0062   19.3669   11.9825 H   0  0  0  0  0  0  0  0  0  0  0  0
   24.4586   18.6208   15.4258 H   0  0  0  0  0  0  0  0  0  0  0  0
   26.1968   16.9299   15.5356 H   0  0  0  0  0  0  0  0  0  0  0  0
   27.3830   18.0665   14.8118 H   0  0  0  0  0  0  0  0  0  0  0  0
   25.8725   18.4311   17.4468 H   0  0  0  0  0  0  0  0  0  0  0  0
   27.6300   18.0539   17.2386 H   0  0  0  0  0  0  0  0  0  0  0  0
   26.7943   21.7274   15.5929 H   0  0  0  0  0  0  0  0  0  0  0  0
   24.0760   14.1554    7.7865 H   0  0  0  0  0  0  0  0  0  0  0  0
   23.2176   11.7240    3.5937 H   0  0  0  0  0  0  0  0  0  0  0  0
  1  2  1  0
  2  3  1  0
  3  4  2  0
  4  5  1  0
  5  6  1  0
  6  7  2  0
  6  8  2  0
  6  9  1  0
  9 10  2  0
 10 11  1  0
 11 12  2  0
 12 13  1  0
 13 14  2  0
 14 15  1  0
 15 16  1  0
 16 17  2  0
 17 18  1  0
 18 19  2  0
 19 20  1  0
 20 21  2  0
 20 22  1  0
 22 23  1  0
 23 24  1  0
 24 25  1  0
 25 26  1  0
 26 27  1  0
 27 28  2  0
 27 29  1  0
 29 30  1  0
 30 31  2  0
 23 32  1  0
 32 33  2  0
 15 34  2  0
 34 35  1  0
 35 36  2  0
  5 37  1  0
 37 38  2  0
 38  3  1  0
 36  9  1  0
 36 13  1  0
 21 16  1  0
 30 24  1  0
 32 19  1  0
  1 39  1  0
  1 40  1  0
  1 41  1  0
  2 42  1  0
  2 43  1  0
  4 44  1  0
 10 45  1  0
 11 46  1  0
 12 47  1  0
 14 48  1  0
 17 49  1  0
 18 50  1  0
 21 51  1  0
 22 52  1  0
 22 53  1  0
 24 54  1  1
 25 55  1  0
 25 56  1  0
 26 57  1  0
 26 58  1  0
 29 59  1  0
 34 60  1  0
 37 61  1  0
M  END
>  <meeko>  (688) 
{"is_sidechain": [true], "free_energy": -11.73, "intermolecular_energy": 0.0, "internal_energy": -11.73, "cluster_size": 20, "cluster_id": 1, "rank_in_cluster": 1}

>  <_RMSD_MCS_to_ref>  (688) 
0.5889425552066452

$$$$
ligand
     RDKit          3D

 54 58  0  0  0  0  0  0  0  0999 V2000
   24.8540    9.4020    7.6050 C   0  0  0  0  0  0  0  0  0  0  0  0
   25.5230   10.7550    7.4270 C   0  0  0  0  0  0  0  0  0  0  0  0
   24.9350   11.5300    6.3010 C   0  0  0  0  0  0  0  0  0  0  0  0
   25.1560   12.8440    5.9410 C   0  0  0  0  0  0  0  0  0  0  0  0
   24.3400   13.0390    4.8630 N   0  0  0  0  0  0  0  0  0  0  0  0
   24.3580   14.3820    3.8440 S   0  0  0  0  0  6  0  0  0  0  0  0
   23.0350   14.9620    3.9760 O   0  0  0  0  0  0  0  0  0  0  0  0
   24.8390   13.8730    2.5720 O   0  0  0  0  0  0  0  0  0  0  0  0
   25.4620   15.4030    4.4700 O   0  0  0  0  0  0  0  0  0  0  0  0
   25.4500   15.7900    5.7880 C   0  0  0  0  0  0  0  0  0  0  0  0
   26.5210   16.6360    6.1580 C   0  0  0  0  0  0  0  0  0  0  0  0
   26.6600   17.1210    7.4640 C   0  0  0  0  0  0  0  0  0  0  0  0
   25.7080   16.7470    8.3960 C   0  0  0  0  0  0  0  0  0  0  0  0
   24.6360   15.8960    8.0090 C   0  0  0  0  0  0  0  0  0  0  0  0
   24.4880   15.4100    6.7280 C   0  0  0  0  0  0  0  0  0  0  0  0
   23.8690   15.7230    9.1900 C   0  0  0  0  0  0  0  0  0  0  0  0
   22.7670   15.0970    9.6380 N   0  0  0  0  0  0  0  0  0  0  0  0
   22.5530   15.3440   10.9590 N   0  0  0  0  0  0  0  0  0  0  0  0
   23.5780   16.1600   11.3290 C   0  0  0  0  0  0  0  0  0  0  0  0
   23.7220   16.6620   12.7010 C   0  0  0  0  0  0  0  0  0  0  0  0
   22.9640   16.3460   13.6150 O   0  0  0  0  0  0  0  0  0  0  0  0
   24.7760   17.5310   12.8600 N   0  0  0  0  0  0  0  0  0  0  0  0
   25.0010   18.2730   14.0820 C   0  0  1  0  0  0  0  0  0  0  0  0
   26.0930   17.6400   14.9400 C   0  0  0  0  0  0  0  0  0  0  0  0
   26.2970   18.4680   16.1990 C   0  0  0  0  0  0  0  0  0  0  0  0
   26.6120   19.9070   15.8640 C   0  0  0  0  0  0  0  0  0  0  0  0
   27.3470   20.5990   16.5620 O   0  0  0  0  0  0  0  0  0  0  0  0
   26.0050   20.4250   14.7480 N   0  0  0  0  0  0  0  0  0  0  0  0
   25.4040   19.7110   13.7390 C   0  0  0  0  0  0  0  0  0  0  0  0
   25.1930   20.2300   12.6430 O   0  0  0  0  0  0  0  0  0  0  0  0
   24.4180   16.4110   10.2340 C   0  0  0  0  0  0  0  0  0  0  0  0
   25.6570   17.1570    9.8840 C   0  0  0  0  0  0  0  0  0  0  0  0
   23.7310   11.8670    4.5490 C   0  0  0  0  0  0  0  0  0  0  0  0
   24.0510   10.9340    5.4220 N   0  0  0  0  0  0  0  0  0  0  0  0
   24.7464    9.1845    8.6779 H   0  0  0  0  0  0  0  0  0  0  0  0
   23.8606    9.4192    7.1330 H   0  0  0  0  0  0  0  0  0  0  0  0
   25.4708    8.6230    7.1330 H   0  0  0  0  0  0  0  0  0  0  0  0
   25.4043   11.3335    8.3550 H   0  0  0  0  0  0  0  0  0  0  0  0
   26.5843   10.5789    7.1974 H   0  0  0  0  0  0  0  0  0  0  0  0
   25.8346   13.5689    6.4143 H   0  0  0  0  0  0  0  0  0  0  0  0
   27.2649   16.9207    5.3993 H   0  0  0  0  0  0  0  0  0  0  0  0
   27.4982   17.7776    7.7401 H   0  0  0  0  0  0  0  0  0  0  0  0
   23.6494   14.7517    6.4571 H   0  0  0  0  0  0  0  0  0  0  0  0
   22.1601   14.5041    9.0540 H   0  0  0  0  0  0  0  0  0  0  0  0
   25.4326   17.6591   12.0768 H   0  0  0  0  0  0  0  0  0  0  0  0
   24.0640   18.2605   14.6581 H   0  0  0  0  0  0  0  0  0  0  0  0
   25.7940   16.6186   15.2181 H   0  0  0  0  0  0  0  0  0  0  0  0
   27.0325   17.6062   14.3689 H   0  0  0  0  0  0  0  0  0  0  0  0
   25.3786   18.4335   16.8034 H   0  0  0  0  0  0  0  0  0  0  0  0
   27.1462   18.0474   16.7576 H   0  0  0  0  0  0  0  0  0  0  0  0
   25.9991   21.4510   14.6573 H   0  0  0  0  0  0  0  0  0  0  0  0
   25.5464   18.2432   10.0179 H   0  0  0  0  0  0  0  0  0  0  0  0
   26.5509   16.9379   10.4864 H   0  0  0  0  0  0  0  0  0  0  0  0
   23.0642   11.7176    3.6870 H   0  0  0  0  0  0  0  0  0  0  0  0
  1  2  1  0
  2  3  1  0
  3  4  2  0
  4  5  1  0
  5  6  1  0
  6  7  2  0
  6  8  2  0
  6  9  1  0
  9 10  1  0
 10 11  2  0
 11 12  1  0
 12 13  2  0
 13 14  1  0
 14 15  2  0
 14 16  1  0
 16 17  1  0
 17 18  1  0
 18 19  2  0
 19 20  1  0
 20 21  2  0
 20 22  1  0
 22 23  1  0
 23 24  1  0
 24 25  1  0
 25 26  1  0
 26 27  2  0
 26 28  1  0
 28 29  1  0
 29 30  2  0
 19 31  1  0
 31 32  1  0
  5 33  1  0
 33 34  2  0
 34  3  1  0
 15 10  1  0
 31 16  2  0
 32 13  1  0
 29 23  1  0
  1 35  1  0
  1 36  1  0
  1 37  1  0
  2 38  1  0
  2 39  1  0
  4 40  1  0
 11 41  1  0
 12 42  1  0
 15 43  1  0
 17 44  1  0
 22 45  1  0
 23 46  1  1
 24 47  1  0
 24 48  1  0
 25 49  1  0
 25 50  1  0
 28 51  1  0
 32 52  1  0
 32 53  1  0
 33 54  1  0
M  END
>  <meeko>  (689) 
{"is_sidechain": [true], "free_energy": -11.73, "intermolecular_energy": 0.0, "internal_energy": -11.73, "cluster_size": 11, "cluster_id": 1, "rank_in_cluster": 1}

>  <_RMSD_MCS_to_ref>  (689) 
0.7712059819961631

$$$$
ligand
     RDKit          3D

 57 61  0  0  0  0  0  0  0  0999 V2000
   24.8710    9.6160    7.7820 C   0  0  0  0  0  0  0  0  0  0  0  0
   25.4240   10.9650    7.3490 C   0  0  0  0  0  0  0  0  0  0  0  0
   26.9110   10.9730    7.2950 C   0  0  0  0  0  0  0  0  0  0  0  0
   27.7610   11.9780    6.8790 C   0  0  0  0  0  0  0  0  0  0  0  0
   29.0120   11.4550    7.0590 N   0  0  0  0  0  0  0  0  0  0  0  0
   30.4460   12.1910    6.6140 S   0  0  0  0  0  6  0  0  0  0  0  0
   30.9790   11.3280    5.5720 O   0  0  0  0  0  0  0  0  0  0  0  0
   31.2050   12.4840    7.8120 O   0  0  0  0  0  0  0  0  0  0  0  0
   30.2150   13.6890    5.8150 C   0  0  0  0  0  0  0  0  0  0  0  0
   30.8640   14.0380    4.6440 C   0  0  0  0  0  0  0  0  0  0  0  0
   30.3040   15.2060    4.2400 N   0  0  0  0  0  0  0  0  0  0  0  0
   29.3200   15.6270    5.0470 N   0  0  0  0  0  0  0  0  0  0  0  0
   29.3160   14.7530    6.0640 C   0  0  0  0  0  0  0  0  0  0  0  0
   28.4290   15.0450    7.0750 N   0  0  0  0  0  0  0  0  0  0  0  0
   27.0630   15.0340    6.9550 C   0  0  0  0  0  0  0  0  0  0  0  0
   26.4640   14.7290    5.9320 O   0  0  0  0  0  0  0  0  0  0  0  0
   26.2920   15.3800    8.1850 C   0  0  0  0  0  0  0  0  0  0  0  0
   25.0070   14.8410    8.4340 C   0  0  0  0  0  0  0  0  0  0  0  0
   24.3140   15.1660    9.6050 C   0  0  0  0  0  0  0  0  0  0  0  0
   24.9380   16.0110   10.5020 C   0  0  0  0  0  0  0  0  0  0  0  0
   26.2070   16.5400   10.2820 C   0  0  0  0  0  0  0  0  0  0  0  0
   26.9010   16.2310    9.1250 C   0  0  0  0  0  0  0  0  0  0  0  0
   26.5990   17.4170   11.4240 C   0  0  0  0  0  0  0  0  0  0  0  0
   25.4850   17.2510   12.3490 N   0  0  0  0  0  0  0  0  0  0  0  0
   25.3440   18.1060   13.5230 C   0  0  2  0  0  0  0  0  0  0  0  0
   25.9560   19.4960   13.3500 C   0  0  0  0  0  0  0  0  0  0  0  0
   25.7010   20.3180   14.6030 C   0  0  0  0  0  0  0  0  0  0  0  0
   26.2470   19.6290   15.8320 C   0  0  0  0  0  0  0  0  0  0  0  0
   26.5470   20.2450   16.8490 O   0  0  0  0  0  0  0  0  0  0  0  0
   26.3180   18.2590   15.7890 N   0  0  0  0  0  0  0  0  0  0  0  0
   25.9100   17.4210   14.7770 C   0  0  0  0  0  0  0  0  0  0  0  0
   25.9160   16.2010   14.9390 O   0  0  0  0  0  0  0  0  0  0  0  0
   24.4550   16.5080   11.7950 C   0  0  0  0  0  0  0  0  0  0  0  0
   23.3440   16.2970   12.2400 O   0  0  0  0  0  0  0  0  0  0  0  0
   28.8980   10.1710    7.4860 C   0  0  0  0  0  0  0  0  0  0  0  0
   27.6320    9.8580    7.6730 N   0  0  0  0  0  0  0  0  0  0  0  0
   24.8497    9.5640    8.8806 H   0  0  0  0  0  0  0  0  0  0  0  0
   23.8507    9.4948    7.3893 H   0  0  0  0  0  0  0  0  0  0  0  0
   25.5127    8.8135    7.3893 H   0  0  0  0  0  0  0  0  0  0  0  0
   25.0321   11.2039    6.3493 H   0  0  0  0  0  0  0  0  0  0  0  0
   25.1095   11.7126    8.0921 H   0  0  0  0  0  0  0  0  0  0  0  0
   27.4935   12.9721    6.4914 H   0  0  0  0  0  0  0  0  0  0  0  0
   31.6698   13.4819    4.1426 H   0  0  0  0  0  0  0  0  0  0  0  0
   30.6047   15.7176    3.3981 H   0  0  0  0  0  0  0  0  0  0  0  0
   28.8223   15.2913    7.9945 H   0  0  0  0  0  0  0  0  0  0  0  0
   24.5495   14.1608    7.7005 H   0  0  0  0  0  0  0  0  0  0  0  0
   23.3097   14.7637    9.8040 H   0  0  0  0  0  0  0  0  0  0  0  0
   27.9055   16.6414    8.9447 H   0  0  0  0  0  0  0  0  0  0  0  0
   27.5440   17.0816   11.8762 H   0  0  0  0  0  0  0  0  0  0  0  0
   26.7736   18.4632   11.1325 H   0  0  0  0  0  0  0  0  0  0  0  0
   24.2621   18.2589   13.6503 H   0  0  0  0  0  0  0  0  0  0  0  0
   27.0397   19.4023   13.1865 H   0  0  0  0  0  0  0  0  0  0  0  0
   25.4977   19.9946   12.4832 H   0  0  0  0  0  0  0  0  0  0  0  0
   26.1895   21.2976   14.4945 H   0  0  0  0  0  0  0  0  0  0  0  0
   24.6143   20.4366   14.7253 H   0  0  0  0  0  0  0  0  0  0  0  0
   26.7272   17.8019   16.6164 H   0  0  0  0  0  0  0  0  0  0  0  0
   29.7441    9.4880    7.6524 H   0  0  0  0  0  0  0  0  0  0  0  0
  1  2  1  0
  2  3  1  0
  3  4  2  0
  4  5  1  0
  5  6  1  0
  6  7  2  0
  6  8  2  0
  6  9  1  0
  9 10  2  0
 10 11  1  0
 11 12  1  0
 12 13  2  0
 13 14  1  0
 14 15  1  0
 15 16  2  0
 15 17  1  0
 17 18  2  0
 18 19  1  0
 19 20  2  0
 20 21  1  0
 21 22  2  0
 21 23  1  0
 23 24  1  0
 24 25  1  0
 25 26  1  0
 26 27  1  0
 27 28  1  0
 28 29  2  0
 28 30  1  0
 30 31  1  0
 31 32  2  0
 24 33  1  0
 33 34  2  0
  5 35  1  0
 35 36  2  0
 36  3  1  0
 13  9  1  0
 22 17  1  0
 31 25  1  0
 33 20  1  0
  1 37  1  0
  1 38  1  0
  1 39  1  0
  2 40  1  0
  2 41  1  0
  4 42  1  0
 10 43  1  0
 11 44  1  0
 14 45  1  0
 18 46  1  0
 19 47  1  0
 22 48  1  0
 23 49  1  0
 23 50  1  0
 25 51  1  1
 26 52  1  0
 26 53  1  0
 27 54  1  0
 27 55  1  0
 30 56  1  0
 35 57  1  0
M  END
>  <meeko>  (690) 
{"is_sidechain": [true], "free_energy": -11.73, "intermolecular_energy": 0.0, "internal_energy": -11.73, "cluster_size": 20, "cluster_id": 1, "rank_in_cluster": 1}

>  <_RMSD_MCS_to_ref>  (690) 
1.9487360816153307

$$$$
ligand
     RDKit          3D

 51 54  0  0  0  0  0  0  0  0999 V2000
   24.8710    9.6160    7.7820 C   0  0  0  0  0  0  0  0  0  0  0  0
   25.4240   10.9650    7.3490 C   0  0  0  0  0  0  0  0  0  0  0  0
   26.8920   11.0690    7.5710 C   0  0  0  0  0  0  0  0  0  0  0  0
   27.5840   11.8930    8.4370 C   0  0  0  0  0  0  0  0  0  0  0  0
   28.8920   11.5480    8.2530 N   0  0  0  0  0  0  0  0  0  0  0  0
   30.2260   12.3880    8.8550 S   0  0  0  0  0  6  0  0  0  0  0  0
   31.3430   11.9200    8.0580 O   0  0  0  0  0  0  0  0  0  0  0  0
   30.1690   12.1830   10.2900 O   0  0  0  0  0  0  0  0  0  0  0  0
   29.9450   13.9590    8.5230 O   0  0  0  0  0  0  0  0  0  0  0  0
   28.7120   14.5420    8.6740 C   0  0  0  0  0  0  0  0  0  0  0  0
   27.9120   14.5230    7.5330 C   0  0  0  0  0  0  0  0  0  0  0  0
   26.6370   15.0840    7.5640 C   0  0  0  0  0  0  0  0  0  0  0  0
   26.1540   15.6700    8.7430 C   0  0  0  0  0  0  0  0  0  0  0  0
   24.8750   16.2420    8.8060 C   0  0  0  0  0  0  0  0  0  0  0  0
   24.4330   16.8120    9.9930 C   0  0  0  0  0  0  0  0  0  0  0  0
   25.2910   16.7870   11.0800 C   0  0  0  0  0  0  0  0  0  0  0  0
   24.8630   17.3900   12.3840 C   0  0  0  0  0  0  0  0  0  0  0  0
   23.6860   17.6260   12.6320 O   0  0  0  0  0  0  0  0  0  0  0  0
   25.8940   17.6590   13.2560 N   0  0  0  0  0  0  0  0  0  0  0  0
   25.6990   18.3850   14.4970 C   0  0  1  0  0  0  0  0  0  0  0  0
   26.5430   17.8110   15.6300 C   0  0  0  0  0  0  0  0  0  0  0  0
   26.3110   18.6200   16.8970 C   0  0  0  0  0  0  0  0  0  0  0  0
   26.5980   20.0850   16.6720 C   0  0  0  0  0  0  0  0  0  0  0  0
   27.0490   20.8100   17.5540 O   0  0  0  0  0  0  0  0  0  0  0  0
   26.2960   20.5870   15.4310 N   0  0  0  0  0  0  0  0  0  0  0  0
   26.0750   19.8560   14.2890 C   0  0  0  0  0  0  0  0  0  0  0  0
   26.1590   20.3820   13.1800 O   0  0  0  0  0  0  0  0  0  0  0  0
   26.5390   16.2410   11.0550 N   0  0  0  0  0  0  0  0  0  0  0  0
   26.9580   15.6930    9.9030 C   0  0  0  0  0  0  0  0  0  0  0  0
   28.2280   15.1280    9.8470 C   0  0  0  0  0  0  0  0  0  0  0  0
   28.9740   10.6230    7.2640 C   0  0  0  0  0  0  0  0  0  0  0  0
   27.7710   10.2900    6.8420 N   0  0  0  0  0  0  0  0  0  0  0  0
   24.8497    9.5640    8.8806 H   0  0  0  0  0  0  0  0  0  0  0  0
   23.8507    9.4948    7.3893 H   0  0  0  0  0  0  0  0  0  0  0  0
   25.5127    8.8135    7.3893 H   0  0  0  0  0  0  0  0  0  0  0  0
   25.2170   11.1053    6.2778 H   0  0  0  0  0  0  0  0  0  0  0  0
   24.9351   11.7408    7.9565 H   0  0  0  0  0  0  0  0  0  0  0  0
   27.1749   12.6531    9.1188 H   0  0  0  0  0  0  0  0  0  0  0  0
   28.2878   14.0644    6.6065 H   0  0  0  0  0  0  0  0  0  0  0  0
   26.0079   15.0672    6.6618 H   0  0  0  0  0  0  0  0  0  0  0  0
   24.2245   16.2392    7.9189 H   0  0  0  0  0  0  0  0  0  0  0  0
   23.4348   17.2681   10.0673 H   0  0  0  0  0  0  0  0  0  0  0  0
   26.8412   17.3319   13.0179 H   0  0  0  0  0  0  0  0  0  0  0  0
   24.6398   18.2907   14.7786 H   0  0  0  0  0  0  0  0  0  0  0  0
   26.2562   16.7638   15.8063 H   0  0  0  0  0  0  0  0  0  0  0  0
   27.6069   17.8591   15.3546 H   0  0  0  0  0  0  0  0  0  0  0  0
   25.2627   18.5040   17.2094 H   0  0  0  0  0  0  0  0  0  0  0  0
   26.9925   18.2482   17.6763 H   0  0  0  0  0  0  0  0  0  0  0  0
   26.2285   21.6114   15.3477 H   0  0  0  0  0  0  0  0  0  0  0  0
   28.8643   15.1427   10.7442 H   0  0  0  0  0  0  0  0  0  0  0  0
   29.9136   10.2088    6.8695 H   0  0  0  0  0  0  0  0  0  0  0  0
  1  2  1  0
  2  3  1  0
  3  4  2  0
  4  5  1  0
  5  6  1  0
  6  7  2  0
  6  8  2  0
  6  9  1  0
  9 10  1  0
 10 11  2  0
 11 12  1  0
 12 13  2  0
 13 14  1  0
 14 15  2  0
 15 16  1  0
 16 17  1  0
 17 18  2  0
 17 19  1  0
 19 20  1  0
 20 21  1  0
 21 22  1  0
 22 23  1  0
 23 24  2  0
 23 25  1  0
 25 26  1  0
 26 27  2  0
 16 28  2  0
 28 29  1  0
 29 30  2  0
  5 31  1  0
 31 32  2  0
 32  3  1  0
 30 10  1  0
 29 13  1  0
 26 20  1  0
  1 33  1  0
  1 34  1  0
  1 35  1  0
  2 36  1  0
  2 37  1  0
  4 38  1  0
 11 39  1  0
 12 40  1  0
 14 41  1  0
 15 42  1  0
 19 43  1  0
 20 44  1  1
 21 45  1  0
 21 46  1  0
 22 47  1  0
 22 48  1  0
 25 49  1  0
 30 50  1  0
 31 51  1  0
M  END
>  <meeko>  (691) 
{"is_sidechain": [true], "free_energy": -11.73, "intermolecular_energy": 0.0, "internal_energy": -11.73, "cluster_size": 18, "cluster_id": 1, "rank_in_cluster": 1}

>  <_RMSD_MCS_to_ref>  (691) 
0.9474144933566412

$$$$
ligand
     RDKit          3D

 45 48  0  0  0  0  0  0  0  0999 V2000
   24.8710    9.6160    7.7820 C   0  0  0  0  0  0  0  0  0  0  0  0
   25.4240   10.9650    7.3490 C   0  0  0  0  0  0  0  0  0  0  0  0
   26.4530   11.4790    8.2940 C   0  0  0  0  0  0  0  0  0  0  0  0
   27.1120   12.6920    8.2880 C   0  0  0  0  0  0  0  0  0  0  0  0
   27.9140   12.6430    9.3920 N   0  0  0  0  0  0  0  0  0  0  0  0
   29.1040   13.7610    9.7960 S   0  0  0  0  0  6  0  0  0  0  0  0
   29.7490   14.1040    8.5430 O   0  0  0  0  0  0  0  0  0  0  0  0
   29.8570   13.1470   10.8790 O   0  0  0  0  0  0  0  0  0  0  0  0
   28.3350   15.0780   10.3720 O   0  0  0  0  0  0  0  0  0  0  0  0
   27.4380   15.7770    9.6690 C   0  0  0  0  0  0  0  0  0  0  0  0
   27.4380   15.8800    8.2970 N   0  0  0  0  0  0  0  0  0  0  0  0
   26.4380   16.6390    7.8130 N   0  0  0  0  0  0  0  0  0  0  0  0
   25.7950   17.0500    8.9100 C   0  0  0  0  0  0  0  0  0  0  0  0
   26.3770   16.5490   10.0900 C   0  0  0  0  0  0  0  0  0  0  0  0
   25.9260   16.8080   11.4430 C   0  0  0  0  0  0  0  0  0  0  0  0
   25.4390   17.9670   12.0010 C   0  0  0  0  0  0  0  0  0  0  0  0
   25.1840   17.6200   13.2980 N   0  0  0  0  0  0  0  0  0  0  0  0
   24.6320   18.4550   14.3480 C   0  0  1  0  0  0  0  0  0  0  0  0
   24.9700   17.9920   15.7660 C   0  0  0  0  0  0  0  0  0  0  0  0
   26.3850   18.3630   16.1850 C   0  0  0  0  0  0  0  0  0  0  0  0
   26.6720   19.8260   15.9500 C   0  0  0  0  0  0  0  0  0  0  0  0
   27.4680   20.4580   16.6390 O   0  0  0  0  0  0  0  0  0  0  0  0
   26.0170   20.4220   14.9040 N   0  0  0  0  0  0  0  0  0  0  0  0
   25.0110   19.9030   14.1240 C   0  0  0  0  0  0  0  0  0  0  0  0
   24.4520   20.6030   13.2810 O   0  0  0  0  0  0  0  0  0  0  0  0
   25.4860   16.3300   13.5260 N   0  0  0  0  0  0  0  0  0  0  0  0
   25.9420   15.8200   12.3910 N   0  0  0  0  0  0  0  0  0  0  0  0
   27.7990   11.4210    9.9710 C   0  0  0  0  0  0  0  0  0  0  0  0
   26.8920   10.6990    9.3460 N   0  0  0  0  0  0  0  0  0  0  0  0
   24.8497    9.5640    8.8806 H   0  0  0  0  0  0  0  0  0  0  0  0
   23.8507    9.4948    7.3893 H   0  0  0  0  0  0  0  0  0  0  0  0
   25.5127    8.8135    7.3893 H   0  0  0  0  0  0  0  0  0  0  0  0
   25.8789   10.8585    6.3531 H   0  0  0  0  0  0  0  0  0  0  0  0
   24.5907   11.6829    7.3331 H   0  0  0  0  0  0  0  0  0  0  0  0
   27.0135   13.5109    7.5602 H   0  0  0  0  0  0  0  0  0  0  0  0
   28.1374   15.4196    7.6971 H   0  0  0  0  0  0  0  0  0  0  0  0
   24.9116   17.7052    8.8930 H   0  0  0  0  0  0  0  0  0  0  0  0
   25.2899   18.9435   11.5171 H   0  0  0  0  0  0  0  0  0  0  0  0
   23.5389   18.3544   14.2771 H   0  0  0  0  0  0  0  0  0  0  0  0
   24.2620   18.4590   16.4665 H   0  0  0  0  0  0  0  0  0  0  0  0
   24.8962   16.8946   15.7829 H   0  0  0  0  0  0  0  0  0  0  0  0
   26.5089   18.1430   17.2556 H   0  0  0  0  0  0  0  0  0  0  0  0
   27.0878   17.7741   15.5774 H   0  0  0  0  0  0  0  0  0  0  0  0
   26.3164   21.3801   14.6731 H   0  0  0  0  0  0  0  0  0  0  0  0
   28.3814   11.0813   10.8401 H   0  0  0  0  0  0  0  0  0  0  0  0
  1  2  1  0
  2  3  1  0
  3  4  2  0
  4  5  1  0
  5  6  1  0
  6  7  2  0
  6  8  2  0
  6  9  1  0
  9 10  1  0
 10 11  1  0
 11 12  1  0
 12 13  2  0
 13 14  1  0
 14 15  1  0
 15 16  2  0
 16 17  1  0
 17 18  1  0
 18 19  1  0
 19 20  1  0
 20 21  1  0
 21 22  2  0
 21 23  1  0
 23 24  1  0
 24 25  2  0
 17 26  1  0
 26 27  2  0
  5 28  1  0
 28 29  2  0
 29  3  1  0
 14 10  2  0
 27 15  1  0
 24 18  1  0
  1 30  1  0
  1 31  1  0
  1 32  1  0
  2 33  1  0
  2 34  1  0
  4 35  1  0
 11 36  1  0
 13 37  1  0
 16 38  1  0
 18 39  1  1
 19 40  1  0
 19 41  1  0
 20 42  1  0
 20 43  1  0
 23 44  1  0
 28 45  1  0
M  END
>  <meeko>  (692) 
{"is_sidechain": [true], "free_energy": -11.73, "intermolecular_energy": 0.0, "internal_energy": -11.73, "cluster_size": 11, "cluster_id": 1, "rank_in_cluster": 1}

>  <_RMSD_MCS_to_ref>  (692) 
0.5569186056627428

$$$$
ligand
     RDKit          3D

 64 68  0  0  0  0  0  0  0  0999 V2000
   24.8540    9.4020    7.6050 C   0  0  0  0  0  0  0  0  0  0  0  0
   25.5230   10.7550    7.4270 C   0  0  0  0  0  0  0  0  0  0  0  0
   26.9880   10.7020    7.6870 C   0  0  0  0  0  0  0  0  0  0  0  0
   27.8110   11.6930    8.1850 C   0  0  0  0  0  0  0  0  0  0  0  0
   29.0500   11.1260    8.2030 N   0  0  0  0  0  0  0  0  0  0  0  0
   30.4620   11.8430    8.7720 S   0  0  0  0  0  6  0  0  0  0  0  0
   30.0750   12.6150    9.9380 O   0  0  0  0  0  0  0  0  0  0  0  0
   31.4170   10.7560    8.8810 O   0  0  0  0  0  0  0  0  0  0  0  0
   30.9250   12.9890    7.4840 C   0  0  0  0  0  0  0  0  0  0  0  0
   32.2350   12.8190    6.9960 C   0  0  0  0  0  0  0  0  0  0  0  0
   32.7070   13.6050    5.9540 C   0  0  0  0  0  0  0  0  0  0  0  0
   31.8720   14.5610    5.3900 C   0  0  0  0  0  0  0  0  0  0  0  0
   30.5690   14.7730    5.8710 C   0  0  0  0  0  0  0  0  0  0  0  0
   30.0630   13.9630    6.9180 C   0  0  0  0  0  0  0  0  0  0  0  0
   28.6370   14.2160    7.3900 C   0  0  1  0  0  0  0  0  0  0  0  0
   28.6070   14.9880    8.7220 C   0  0  0  0  0  0  0  0  0  0  0  0
   29.6040   15.0880    9.4320 O   0  0  0  0  0  0  0  0  0  0  0  0
   27.3610   15.5140    9.0170 N   0  0  0  0  0  0  0  0  0  0  0  0
   27.0050   16.2690   10.1550 C   0  0  0  0  0  0  0  0  0  0  0  0
   26.1410   15.6680   11.0750 C   0  0  0  0  0  0  0  0  0  0  0  0
   25.7670   16.3350   12.2460 C   0  0  0  0  0  0  0  0  0  0  0  0
   26.2410   17.6260   12.5140 C   0  0  0  0  0  0  0  0  0  0  0  0
   25.8620   18.3210   13.8100 C   0  0  1  0  0  0  0  0  0  0  0  0
   26.6670   17.7380   14.9770 C   0  0  0  0  0  0  0  0  0  0  0  0
   26.2500   18.4060   16.2760 C   0  0  0  0  0  0  0  0  0  0  0  0
   26.4220   19.9020   16.1960 C   0  0  0  0  0  0  0  0  0  0  0  0
   26.5790   20.5990   17.1940 O   0  0  0  0  0  0  0  0  0  0  0  0
   26.3220   20.4630   14.9480 N   0  0  0  0  0  0  0  0  0  0  0  0
   26.0180   19.8410   13.7580 C   0  0  0  0  0  0  0  0  0  0  0  0
   25.8280   20.5170   12.7500 O   0  0  0  0  0  0  0  0  0  0  0  0
   27.0930   18.2300   11.5780 C   0  0  0  0  0  0  0  0  0  0  0  0
   27.4670   17.5590   10.4080 C   0  0  0  0  0  0  0  0  0  0  0  0
   27.7870   14.9920    6.3750 C   0  0  0  0  0  0  0  0  0  0  0  0
   28.5660   16.1670    5.8200 C   0  0  0  0  0  0  0  0  0  0  0  0
   29.7700   15.6860    5.1660 N   0  0  0  0  0  0  0  0  0  0  0  0
   28.9570    9.8420    7.7680 C   0  0  0  0  0  0  0  0  0  0  0  0
   27.7140    9.5540    7.4390 N   0  0  0  0  0  0  0  0  0  0  0  0
   24.7464    9.1845    8.6779 H   0  0  0  0  0  0  0  0  0  0  0  0
   23.8606    9.4192    7.1330 H   0  0  0  0  0  0  0  0  0  0  0  0
   25.4708    8.6230    7.1330 H   0  0  0  0  0  0  0  0  0  0  0  0
   25.3596   11.0968    6.3943 H   0  0  0  0  0  0  0  0  0  0  0  0
   25.0777   11.4480    8.1560 H   0  0  0  0  0  0  0  0  0  0  0  0
   27.5300   12.7098    8.4966 H   0  0  0  0  0  0  0  0  0  0  0  0
   32.8895   12.0570    7.4443 H   0  0  0  0  0  0  0  0  0  0  0  0
   33.7323   13.4721    5.5785 H   0  0  0  0  0  0  0  0  0  0  0  0
   32.2391   15.1658    4.5477 H   0  0  0  0  0  0  0  0  0  0  0  0
   28.2042   13.2127    7.5168 H   0  0  0  0  0  0  0  0  0  0  0  0
   26.6129   15.3350    8.3320 H   0  0  0  0  0  0  0  0  0  0  0  0
   25.7508   14.6590   10.8757 H   0  0  0  0  0  0  0  0  0  0  0  0
   25.0946   15.8416   12.9632 H   0  0  0  0  0  0  0  0  0  0  0  0
   24.7898   18.1299   13.9642 H   0  0  0  0  0  0  0  0  0  0  0  0
   26.4787   16.6564   15.0460 H   0  0  0  0  0  0  0  0  0  0  0  0
   27.7383   17.9180   14.8043 H   0  0  0  0  0  0  0  0  0  0  0  0
   25.1929   18.1759   16.4752 H   0  0  0  0  0  0  0  0  0  0  0  0
   26.8880   18.0235   17.0864 H   0  0  0  0  0  0  0  0  0  0  0  0
   26.4962   21.4768   14.8946 H   0  0  0  0  0  0  0  0  0  0  0  0
   27.4726   19.2452   11.7660 H   0  0  0  0  0  0  0  0  0  0  0  0
   28.1303   18.0535    9.6831 H   0  0  0  0  0  0  0  0  0  0  0  0
   27.5064   14.3212    5.5496 H   0  0  0  0  0  0  0  0  0  0  0  0
   26.8854   15.3690    6.8799 H   0  0  0  0  0  0  0  0  0  0  0  0
   27.9441   16.7074    5.0912 H   0  0  0  0  0  0  0  0  0  0  0  0
   28.8416   16.8444    6.6417 H   0  0  0  0  0  0  0  0  0  0  0  0
   30.0277   16.0030    4.2205 H   0  0  0  0  0  0  0  0  0  0  0  0
   29.8017    9.1407    7.7000 H   0  0  0  0  0  0  0  0  0  0  0  0
  1  2  1  0
  2  3  1  0
  3  4  2  0
  4  5  1  0
  5  6  1  0
  6  7  2  0
  6  8  2  0
  6  9  1  0
  9 10  2  0
 10 11  1  0
 11 12  2  0
 12 13  1  0
 13 14  2  0
 14 15  1  0
 15 16  1  0
 16 17  2  0
 16 18  1  0
 18 19  1  0
 19 20  2  0
 20 21  1  0
 21 22  2  0
 22 23  1  0
 23 24  1  0
 24 25  1  0
 25 26  1  0
 26 27  2  0
 26 28  1  0
 28 29  1  0
 29 30  2  0
 22 31  1  0
 31 32  2  0
 15 33  1  0
 33 34  1  0
 34 35  1  0
  5 36  1  0
 36 37  2  0
 37  3  1  0
 14  9  1  0
 32 19  1  0
 35 13  1  0
 29 23  1  0
  1 38  1  0
  1 39  1  0
  1 40  1  0
  2 41  1  0
  2 42  1  0
  4 43  1  0
 10 44  1  0
 11 45  1  0
 12 46  1  0
 15 47  1  1
 18 48  1  0
 20 49  1  0
 21 50  1  0
 23 51  1  1
 24 52  1  0
 24 53  1  0
 25 54  1  0
 25 55  1  0
 28 56  1  0
 31 57  1  0
 32 58  1  0
 33 59  1  0
 33 60  1  0
 34 61  1  0
 34 62  1  0
 35 63  1  0
 36 64  1  0
M  END
>  <meeko>  (693) 
{"is_sidechain": [true], "free_energy": -11.72, "intermolecular_energy": 0.0, "internal_energy": -11.72, "cluster_size": 11, "cluster_id": 1, "rank_in_cluster": 1}

>  <_RMSD_MCS_to_ref>  (693) 
1.0381977172003403

$$$$
ligand
     RDKit          3D

 59 64  0  0  0  0  0  0  0  0999 V2000
   24.8710    9.6160    7.7820 C   0  0  0  0  0  0  0  0  0  0  0  0
   25.4240   10.9650    7.3490 C   0  0  0  0  0  0  0  0  0  0  0  0
   26.7270   10.8370    6.6410 C   0  0  0  0  0  0  0  0  0  0  0  0
   27.1970   11.5410    5.5490 C   0  0  0  0  0  0  0  0  0  0  0  0
   28.4240   10.9950    5.3010 N   0  0  0  0  0  0  0  0  0  0  0  0
   29.5840   11.6260    4.2540 S   0  0  0  0  0  6  0  0  0  0  0  0
   30.6840   10.6820    4.3030 O   0  0  0  0  0  0  0  0  0  0  0  0
   28.8650   11.9010    3.0250 O   0  0  0  0  0  0  0  0  0  0  0  0
   30.0670   13.0370    4.9130 O   0  0  0  0  0  0  0  0  0  0  0  0
   29.8750   13.3720    6.2420 C   0  0  0  0  0  0  0  0  0  0  0  0
   30.7590   13.1900    7.2500 C   0  0  0  0  0  0  0  0  0  0  0  0
   30.5320   13.5520    8.5700 N   0  0  0  0  0  0  0  0  0  0  0  0
   29.3860   14.0930    8.8740 C   0  0  0  0  0  0  0  0  0  0  0  0
   28.3750   14.3080    7.8850 C   0  0  0  0  0  0  0  0  0  0  0  0
   27.0990   14.8250    7.8640 C   0  0  0  0  0  0  0  0  0  0  0  0
   26.3320   15.3380    8.9850 C   0  0  0  0  0  0  0  0  0  0  0  0
   24.9450   15.0900    9.1040 C   0  0  0  0  0  0  0  0  0  0  0  0
   24.2140   15.5950   10.1850 C   0  0  0  0  0  0  0  0  0  0  0  0
   24.8980   16.3480   11.1190 C   0  0  0  0  0  0  0  0  0  0  0  0
   26.2580   16.6240   11.0130 C   0  0  0  0  0  0  0  0  0  0  0  0
   26.9890   16.1300    9.9450 C   0  0  0  0  0  0  0  0  0  0  0  0
   26.6900   17.4940   12.1430 C   0  0  0  0  0  0  0  0  0  0  0  0
   25.4870   17.5770   12.9610 N   0  0  0  0  0  0  0  0  0  0  0  0
   25.3920   18.5120   14.0780 C   0  0  2  0  0  0  0  0  0  0  0  0
   26.0870   19.8490   13.8220 C   0  0  0  0  0  0  0  0  0  0  0  0
   25.8750   20.7640   15.0170 C   0  0  0  0  0  0  0  0  0  0  0  0
   26.3700   20.1250   16.2930 C   0  0  0  0  0  0  0  0  0  0  0  0
   26.6890   20.7870   17.2760 O   0  0  0  0  0  0  0  0  0  0  0  0
   26.3690   18.7530   16.3360 N   0  0  0  0  0  0  0  0  0  0  0  0
   25.9050   17.8770   15.3800 C   0  0  0  0  0  0  0  0  0  0  0  0
   25.8220   16.6760   15.6290 O   0  0  0  0  0  0  0  0  0  0  0  0
   24.3930   17.0000   12.3320 C   0  0  0  0  0  0  0  0  0  0  0  0
   23.2270   17.0160   12.6730 O   0  0  0  0  0  0  0  0  0  0  0  0
   26.6170   14.8420    6.5720 N   0  0  0  0  0  0  0  0  0  0  0  0
   27.5630   14.2980    5.8360 C   0  0  0  0  0  0  0  0  0  0  0  0
   28.6560   13.9550    6.5860 N   0  0  0  0  0  0  0  0  0  0  0  0
   28.6990   10.0680    6.2550 C   0  0  0  0  0  0  0  0  0  0  0  0
   27.6760    9.9320    7.0720 N   0  0  0  0  0  0  0  0  0  0  0  0
   24.8497    9.5640    8.8806 H   0  0  0  0  0  0  0  0  0  0  0  0
   23.8507    9.4948    7.3893 H   0  0  0  0  0  0  0  0  0  0  0  0
   25.5127    8.8135    7.3893 H   0  0  0  0  0  0  0  0  0  0  0  0
   24.6998   11.4448    6.6743 H   0  0  0  0  0  0  0  0  0  0  0  0
   25.5889   11.5687    8.2536 H   0  0  0  0  0  0  0  0  0  0  0  0
   26.6971   12.3552    5.0039 H   0  0  0  0  0  0  0  0  0  0  0  0
   31.7245   12.7227    7.0061 H   0  0  0  0  0  0  0  0  0  0  0  0
   29.1917   14.3911    9.9148 H   0  0  0  0  0  0  0  0  0  0  0  0
   24.4334   14.4915    8.3358 H   0  0  0  0  0  0  0  0  0  0  0  0
   23.1363   15.3998   10.2869 H   0  0  0  0  0  0  0  0  0  0  0  0
   28.0620   16.3524    9.8492 H   0  0  0  0  0  0  0  0  0  0  0  0
   27.5190   17.0356   12.7021 H   0  0  0  0  0  0  0  0  0  0  0  0
   27.0664   18.4756   11.8192 H   0  0  0  0  0  0  0  0  0  0  0  0
   24.3205   18.7366   14.1852 H   0  0  0  0  0  0  0  0  0  0  0  0
   27.1641   19.6807   13.6749 H   0  0  0  0  0  0  0  0  0  0  0  0
   25.6639   20.3169   12.9208 H   0  0  0  0  0  0  0  0  0  0  0  0
   26.4230   21.7032   14.8507 H   0  0  0  0  0  0  0  0  0  0  0  0
   24.7967   20.9553   15.1205 H   0  0  0  0  0  0  0  0  0  0  0  0
   26.7632   18.3268   17.1868 H   0  0  0  0  0  0  0  0  0  0  0  0
   27.4850   14.1384    4.7504 H   0  0  0  0  0  0  0  0  0  0  0  0
   29.6435    9.5097    6.3337 H   0  0  0  0  0  0  0  0  0  0  0  0
  1  2  1  0
  2  3  1  0
  3  4  2  0
  4  5  1  0
  5  6  1  0
  6  7  2  0
  6  8  2  0
  6  9  1  0
  9 10  1  0
 10 11  2  0
 11 12  1  0
 12 13  2  0
 13 14  1  0
 14 15  2  0
 15 16  1  0
 16 17  2  0
 17 18  1  0
 18 19  2  0
 19 20  1  0
 20 21  2  0
 20 22  1  0
 22 23  1  0
 23 24  1  0
 24 25  1  0
 25 26  1  0
 26 27  1  0
 27 28  2  0
 27 29  1  0
 29 30  1  0
 30 31  2  0
 23 32  1  0
 32 33  2  0
 15 34  1  0
 34 35  2  0
 35 36  1  0
  5 37  1  0
 37 38  2  0
 38  3  1  0
 36 10  1  0
 36 14  1  0
 21 16  1  0
 30 24  1  0
 32 19  1  0
  1 39  1  0
  1 40  1  0
  1 41  1  0
  2 42  1  0
  2 43  1  0
  4 44  1  0
 11 45  1  0
 13 46  1  0
 17 47  1  0
 18 48  1  0
 21 49  1  0
 22 50  1  0
 22 51  1  0
 24 52  1  1
 25 53  1  0
 25 54  1  0
 26 55  1  0
 26 56  1  0
 29 57  1  0
 35 58  1  0
 37 59  1  0
M  END
>  <meeko>  (694) 
{"is_sidechain": [true], "free_energy": -11.72, "intermolecular_energy": 0.0, "internal_energy": -11.72, "cluster_size": 20, "cluster_id": 1, "rank_in_cluster": 1}

>  <_RMSD_MCS_to_ref>  (694) 
1.7839942028463753

$$$$
ligand
     RDKit          3D

 59 64  0  0  0  0  0  0  0  0999 V2000
   24.8710    9.6170    7.7820 C   0  0  0  0  0  0  0  0  0  0  0  0
   25.4240   10.9640    7.3490 C   0  0  0  0  0  0  0  0  0  0  0  0
   26.8050   11.1960    7.8490 C   0  0  0  0  0  0  0  0  0  0  0  0
   27.2600   12.1670    8.7190 C   0  0  0  0  0  0  0  0  0  0  0  0
   28.5870   11.8840    8.8710 N   0  0  0  0  0  0  0  0  0  0  0  0
   29.7190   12.8630    9.6480 S   0  0  0  0  0  6  0  0  0  0  0  0
   29.1800   13.0560   10.9820 O   0  0  0  0  0  0  0  0  0  0  0  0
   30.9930   12.1960    9.4490 O   0  0  0  0  0  0  0  0  0  0  0  0
   29.7000   14.3050    8.8800 O   0  0  0  0  0  0  0  0  0  0  0  0
   29.6190   14.4180    7.5410 C   0  0  0  0  0  0  0  0  0  0  0  0
   30.6100   14.0430    6.6620 C   0  0  0  0  0  0  0  0  0  0  0  0
   30.1760   14.3580    5.4000 N   0  0  0  0  0  0  0  0  0  0  0  0
   28.9390   14.9360    5.4710 C   0  0  0  0  0  0  0  0  0  0  0  0
   28.2430   15.3510    4.4020 N   0  0  0  0  0  0  0  0  0  0  0  0
   27.0550   15.8640    4.7520 C   0  0  0  0  0  0  0  0  0  0  0  0
   26.5430   15.9900    5.9900 N   0  0  0  0  0  0  0  0  0  0  0  0
   27.2940   15.5750    7.0470 C   0  0  0  0  0  0  0  0  0  0  0  0
   26.6940   15.6950    8.3790 C   0  0  0  0  0  0  0  0  0  0  0  0
   25.6640   14.8250    8.8180 C   0  0  0  0  0  0  0  0  0  0  0  0
   25.0800   14.9530   10.0830 C   0  0  0  0  0  0  0  0  0  0  0  0
   25.5660   15.9470   10.9080 C   0  0  0  0  0  0  0  0  0  0  0  0
   26.5960   16.8010   10.5260 C   0  0  0  0  0  0  0  0  0  0  0  0
   27.1630   16.6880    9.2680 C   0  0  0  0  0  0  0  0  0  0  0  0
   26.9110   17.7510   11.6320 C   0  0  0  0  0  0  0  0  0  0  0  0
   26.0000   17.3230   12.6870 N   0  0  0  0  0  0  0  0  0  0  0  0
   25.7240   18.1130   13.8810 C   0  0  1  0  0  0  0  0  0  0  0  0
   26.3030   17.4850   15.1440 C   0  0  0  0  0  0  0  0  0  0  0  0
   25.9000   18.3180   16.3510 C   0  0  0  0  0  0  0  0  0  0  0  0
   26.3280   19.7580   16.1870 C   0  0  0  0  0  0  0  0  0  0  0  0
   26.7150   20.4410   17.1310 O   0  0  0  0  0  0  0  0  0  0  0  0
   26.2490   20.2820   14.9220 N   0  0  0  0  0  0  0  0  0  0  0  0
   26.2470   19.5540   13.7530 C   0  0  0  0  0  0  0  0  0  0  0  0
   26.6550   20.0570   12.7090 O   0  0  0  0  0  0  0  0  0  0  0  0
   25.1500   16.3110   12.2660 C   0  0  0  0  0  0  0  0  0  0  0  0
   24.2260   15.8070   12.8720 O   0  0  0  0  0  0  0  0  0  0  0  0
   28.5550   15.0090    6.8040 C   0  0  0  0  0  0  0  0  0  0  0  0
   28.9180   10.8510    8.0550 C   0  0  0  0  0  0  0  0  0  0  0  0
   27.8510   10.3940    7.4320 N   0  0  0  0  0  0  0  0  0  0  0  0
   24.8498    9.5653    8.8806 H   0  0  0  0  0  0  0  0  0  0  0  0
   23.8505    9.4962    7.3895 H   0  0  0  0  0  0  0  0  0  0  0  0
   25.5122    8.8140    7.3895 H   0  0  0  0  0  0  0  0  0  0  0  0
   25.4345   11.0049    6.2498 H   0  0  0  0  0  0  0  0  0  0  0  0
   24.7771   11.7452    7.7748 H   0  0  0  0  0  0  0  0  0  0  0  0
   26.6851   12.9818    9.1832 H   0  0  0  0  0  0  0  0  0  0  0  0
   31.5715   13.5771    6.9235 H   0  0  0  0  0  0  0  0  0  0  0  0
   30.7016   14.1855    4.5312 H   0  0  0  0  0  0  0  0  0  0  0  0
   26.4225   16.2255    3.9278 H   0  0  0  0  0  0  0  0  0  0  0  0
   25.3145   14.0276    8.1457 H   0  0  0  0  0  0  0  0  0  0  0  0
   24.2660   14.2879   10.4071 H   0  0  0  0  0  0  0  0  0  0  0  0
   27.9731   17.3667    8.9627 H   0  0  0  0  0  0  0  0  0  0  0  0
   27.9597   17.6565   11.9502 H   0  0  0  0  0  0  0  0  0  0  0  0
   26.7890   18.8072   11.3500 H   0  0  0  0  0  0  0  0  0  0  0  0
   24.6278   18.1334   13.9700 H   0  0  0  0  0  0  0  0  0  0  0  0
   25.9140   16.4623   15.2572 H   0  0  0  0  0  0  0  0  0  0  0  0
   27.4000   17.4522   15.0691 H   0  0  0  0  0  0  0  0  0  0  0  0
   24.8066   18.2792   16.4652 H   0  0  0  0  0  0  0  0  0  0  0  0
   26.3971   17.9055   17.2413 H   0  0  0  0  0  0  0  0  0  0  0  0
   26.1858   21.3067   14.8393 H   0  0  0  0  0  0  0  0  0  0  0  0
   29.9353   10.4512    7.9312 H   0  0  0  0  0  0  0  0  0  0  0  0
  1  2  1  0
  2  3  1  0
  3  4  2  0
  4  5  1  0
  5  6  1  0
  6  7  2  0
  6  8  2  0
  6  9  1  0
  9 10  1  0
 10 11  2  0
 11 12  1  0
 12 13  1  0
 13 14  2  0
 14 15  1  0
 15 16  2  0
 16 17  1  0
 17 18  1  0
 18 19  2  0
 19 20  1  0
 20 21  2  0
 21 22  1  0
 22 23  2  0
 22 24  1  0
 24 25  1  0
 25 26  1  0
 26 27  1  0
 27 28  1  0
 28 29  1  0
 29 30  2  0
 29 31  1  0
 31 32  1  0
 32 33  2  0
 25 34  1  0
 34 35  2  0
 17 36  2  0
  5 37  1  0
 37 38  2  0
 38  3  1  0
 36 10  1  0
 36 13  1  0
 23 18  1  0
 32 26  1  0
 34 21  1  0
  1 39  1  0
  1 40  1  0
  1 41  1  0
  2 42  1  0
  2 43  1  0
  4 44  1  0
 11 45  1  0
 12 46  1  0
 15 47  1  0
 19 48  1  0
 20 49  1  0
 23 50  1  0
 24 51  1  0
 24 52  1  0
 26 53  1  1
 27 54  1  0
 27 55  1  0
 28 56  1  0
 28 57  1  0
 31 58  1  0
 37 59  1  0
M  END
>  <meeko>  (695) 
{"is_sidechain": [true], "free_energy": -11.72, "intermolecular_energy": 0.0, "internal_energy": -11.72, "cluster_size": 9, "cluster_id": 1, "rank_in_cluster": 1}

>  <_RMSD_MCS_to_ref>  (695) 
1.4170559919108794

$$$$
ligand
     RDKit          3D

 49 52  0  0  0  0  0  0  0  0999 V2000
   24.8710    9.6160    7.7820 C   0  0  0  0  0  0  0  0  0  0  0  0
   25.4240   10.9650    7.3490 C   0  0  0  0  0  0  0  0  0  0  0  0
   26.4310   11.4940    8.3100 C   0  0  0  0  0  0  0  0  0  0  0  0
   27.2120   12.6280    8.2090 C   0  0  0  0  0  0  0  0  0  0  0  0
   27.9530   12.6260    9.3560 N   0  0  0  0  0  0  0  0  0  0  0  0
   29.1860   13.7070    9.7360 S   0  0  0  0  0  6  0  0  0  0  0  0
   30.0260   13.6930    8.5490 O   0  0  0  0  0  0  0  0  0  0  0  0
   29.7130   13.2820   11.0190 O   0  0  0  0  0  0  0  0  0  0  0  0
   28.5610   15.2010    9.8770 O   0  0  0  0  0  0  0  0  0  0  0  0
   27.2580   15.4030   10.1180 C   0  0  0  0  0  0  0  0  0  0  0  0
   26.3050   15.0220    9.2070 C   0  0  0  0  0  0  0  0  0  0  0  0
   25.1040   15.3470    9.7780 N   0  0  0  0  0  0  0  0  0  0  0  0
   23.8220   15.1780    9.2670 C   0  0  0  0  0  0  0  0  0  0  0  0
   22.7690   15.5520   10.0080 C   0  0  0  0  0  0  0  0  0  0  0  0
   23.0080   16.1140   11.3280 C   0  0  0  0  0  0  0  0  0  0  0  0
   24.2550   16.2850   11.8240 C   0  0  0  0  0  0  0  0  0  0  0  0
   24.3690   16.8540   13.2040 C   0  0  0  0  0  0  0  0  0  0  0  0
   23.8870   16.2810   14.1800 O   0  0  0  0  0  0  0  0  0  0  0  0
   25.0370   18.0430   13.3130 N   0  0  0  0  0  0  0  0  0  0  0  0
   25.2220   18.7100   14.5930 C   0  0  1  0  0  0  0  0  0  0  0  0
   26.2510   17.9810   15.4500 C   0  0  0  0  0  0  0  0  0  0  0  0
   26.4560   18.7260   16.7580 C   0  0  0  0  0  0  0  0  0  0  0  0
   26.8430   20.1650   16.5210 C   0  0  0  0  0  0  0  0  0  0  0  0
   27.5450   20.7920   17.3100 O   0  0  0  0  0  0  0  0  0  0  0  0
   26.3130   20.7690   15.4090 N   0  0  0  0  0  0  0  0  0  0  0  0
   25.6490   20.1650   14.3690 C   0  0  0  0  0  0  0  0  0  0  0  0
   25.3800   20.7930   13.3470 O   0  0  0  0  0  0  0  0  0  0  0  0
   25.3840   15.8970   11.0290 C   0  0  0  0  0  0  0  0  0  0  0  0
   26.6920   15.9380   11.2430 N   0  0  0  0  0  0  0  0  0  0  0  0
   27.6710   11.5050   10.0660 C   0  0  0  0  0  0  0  0  0  0  0  0
   26.7090   10.8160    9.4840 N   0  0  0  0  0  0  0  0  0  0  0  0
   24.8497    9.5640    8.8806 H   0  0  0  0  0  0  0  0  0  0  0  0
   23.8507    9.4948    7.3893 H   0  0  0  0  0  0  0  0  0  0  0  0
   25.5127    8.8135    7.3893 H   0  0  0  0  0  0  0  0  0  0  0  0
   25.8993   10.8533    6.3633 H   0  0  0  0  0  0  0  0  0  0  0  0
   24.5865   11.6771    7.3108 H   0  0  0  0  0  0  0  0  0  0  0  0
   27.2326   13.3642    7.3920 H   0  0  0  0  0  0  0  0  0  0  0  0
   26.4711   14.5543    8.2253 H   0  0  0  0  0  0  0  0  0  0  0  0
   23.6735   14.7430    8.2676 H   0  0  0  0  0  0  0  0  0  0  0  0
   21.7443   15.4360    9.6251 H   0  0  0  0  0  0  0  0  0  0  0  0
   22.1459   16.4100   11.9437 H   0  0  0  0  0  0  0  0  0  0  0  0
   25.4208   18.4795   12.4627 H   0  0  0  0  0  0  0  0  0  0  0  0
   24.2628   18.6952   15.1312 H   0  0  0  0  0  0  0  0  0  0  0  0
   25.8931   16.9628   15.6625 H   0  0  0  0  0  0  0  0  0  0  0  0
   27.2063   17.9337   14.9068 H   0  0  0  0  0  0  0  0  0  0  0  0
   25.5202   18.6982   17.3355 H   0  0  0  0  0  0  0  0  0  0  0  0
   27.2718   18.2360   17.3097 H   0  0  0  0  0  0  0  0  0  0  0  0
   26.4257   21.7909   15.3469 H   0  0  0  0  0  0  0  0  0  0  0  0
   28.1752   11.2113   10.9985 H   0  0  0  0  0  0  0  0  0  0  0  0
  1  2  1  0
  2  3  1  0
  3  4  2  0
  4  5  1  0
  5  6  1  0
  6  7  2  0
  6  8  2  0
  6  9  1  0
  9 10  1  0
 10 11  2  0
 11 12  1  0
 12 13  1  0
 13 14  2  0
 14 15  1  0
 15 16  2  0
 16 17  1  0
 17 18  2  0
 17 19  1  0
 19 20  1  0
 20 21  1  0
 21 22  1  0
 22 23  1  0
 23 24  2  0
 23 25  1  0
 25 26  1  0
 26 27  2  0
 16 28  1  0
 28 29  2  0
  5 30  1  0
 30 31  2  0
 31  3  1  0
 29 10  1  0
 28 12  1  0
 26 20  1  0
  1 32  1  0
  1 33  1  0
  1 34  1  0
  2 35  1  0
  2 36  1  0
  4 37  1  0
 11 38  1  0
 13 39  1  0
 14 40  1  0
 15 41  1  0
 19 42  1  0
 20 43  1  1
 21 44  1  0
 21 45  1  0
 22 46  1  0
 22 47  1  0
 25 48  1  0
 30 49  1  0
M  END
>  <meeko>  (696) 
{"is_sidechain": [true], "free_energy": -11.72, "intermolecular_energy": 0.0, "internal_energy": -11.72, "cluster_size": 9, "cluster_id": 1, "rank_in_cluster": 1}

>  <_RMSD_MCS_to_ref>  (696) 
0.7105934139858039

$$$$
ligand
     RDKit          3D

 51 54  0  0  0  0  0  0  0  0999 V2000
   24.8710    9.6160    7.7820 C   0  0  0  0  0  0  0  0  0  0  0  0
   25.4240   10.9650    7.3490 C   0  0  0  0  0  0  0  0  0  0  0  0
   26.5020   11.4480    8.2550 C   0  0  0  0  0  0  0  0  0  0  0  0
   27.5760   12.2670    7.9700 C   0  0  0  0  0  0  0  0  0  0  0  0
   28.2560   12.3510    9.1520 N   0  0  0  0  0  0  0  0  0  0  0  0
   29.5260   13.4070    9.4830 S   0  0  0  0  0  6  0  0  0  0  0  0
   30.2410   13.5340    8.2250 O   0  0  0  0  0  0  0  0  0  0  0  0
   30.1700   12.8560   10.6600 O   0  0  0  0  0  0  0  0  0  0  0  0
   28.8380   14.8340    9.8650 O   0  0  0  0  0  0  0  0  0  0  0  0
   27.4850   15.0410    9.8120 C   0  0  0  0  0  0  0  0  0  0  0  0
   26.8830   14.7610    8.5910 C   0  0  0  0  0  0  0  0  0  0  0  0
   25.5050   14.9360    8.4320 C   0  0  0  0  0  0  0  0  0  0  0  0
   24.7000   15.4020    9.4610 C   0  0  0  0  0  0  0  0  0  0  0  0
   23.3820   15.5290    9.2330 N   0  0  0  0  0  0  0  0  0  0  0  0
   22.5880   15.9650   10.2340 C   0  0  0  0  0  0  0  0  0  0  0  0
   23.0570   16.3180   11.4770 C   0  0  0  0  0  0  0  0  0  0  0  0
   24.4290   16.2160   11.6970 C   0  0  0  0  0  0  0  0  0  0  0  0
   24.9140   16.6660   13.0230 C   0  0  0  0  0  0  0  0  0  0  0  0
   25.3870   15.8630   13.8150 O   0  0  0  0  0  0  0  0  0  0  0  0
   24.7450   18.0020   13.2900 N   0  0  0  0  0  0  0  0  0  0  0  0
   25.1240   18.5900   14.5660 C   0  0  1  0  0  0  0  0  0  0  0  0
   26.3060   17.8600   15.1960 C   0  0  0  0  0  0  0  0  0  0  0  0
   26.6910   18.5430   16.4980 C   0  0  0  0  0  0  0  0  0  0  0  0
   26.9880   20.0090   16.2810 C   0  0  0  0  0  0  0  0  0  0  0  0
   27.8330   20.6130   16.9330 O   0  0  0  0  0  0  0  0  0  0  0  0
   26.2380   20.6540   15.3310 N   0  0  0  0  0  0  0  0  0  0  0  0
   25.5060   20.0560   14.3350 C   0  0  0  0  0  0  0  0  0  0  0  0
   25.1700   20.6830   13.3300 O   0  0  0  0  0  0  0  0  0  0  0  0
   25.2970   15.7170   10.6960 C   0  0  0  0  0  0  0  0  0  0  0  0
   26.6930   15.5000   10.8610 C   0  0  0  0  0  0  0  0  0  0  0  0
   27.5670   11.6810   10.1100 C   0  0  0  0  0  0  0  0  0  0  0  0
   26.5050   11.0970    9.5910 N   0  0  0  0  0  0  0  0  0  0  0  0
   24.8497    9.5640    8.8806 H   0  0  0  0  0  0  0  0  0  0  0  0
   23.8507    9.4948    7.3893 H   0  0  0  0  0  0  0  0  0  0  0  0
   25.5127    8.8135    7.3893 H   0  0  0  0  0  0  0  0  0  0  0  0
   25.8320   10.8706    6.3318 H   0  0  0  0  0  0  0  0  0  0  0  0
   24.6013   11.6943    7.3843 H   0  0  0  0  0  0  0  0  0  0  0  0
   27.8270   12.7431    7.0107 H   0  0  0  0  0  0  0  0  0  0  0  0
   27.4917   14.4011    7.7484 H   0  0  0  0  0  0  0  0  0  0  0  0
   25.0454   14.6969    7.4616 H   0  0  0  0  0  0  0  0  0  0  0  0
   21.5071   16.0420   10.0447 H   0  0  0  0  0  0  0  0  0  0  0  0
   22.3758   16.6673   12.2669 H   0  0  0  0  0  0  0  0  0  0  0  0
   24.3368   18.6077   12.5637 H   0  0  0  0  0  0  0  0  0  0  0  0
   24.2695   18.5072   15.2537 H   0  0  0  0  0  0  0  0  0  0  0  0
   26.0255   16.8159   15.3992 H   0  0  0  0  0  0  0  0  0  0  0  0
   27.1609   17.8833   14.5042 H   0  0  0  0  0  0  0  0  0  0  0  0
   25.8600   18.4475   17.2123 H   0  0  0  0  0  0  0  0  0  0  0  0
   27.5978   18.0589   16.8896 H   0  0  0  0  0  0  0  0  0  0  0  0
   26.2224   21.6832   15.3681 H   0  0  0  0  0  0  0  0  0  0  0  0
   27.1568   15.6991   11.8384 H   0  0  0  0  0  0  0  0  0  0  0  0
   27.8542   11.6320   11.1707 H   0  0  0  0  0  0  0  0  0  0  0  0
  1  2  1  0
  2  3  1  0
  3  4  2  0
  4  5  1  0
  5  6  1  0
  6  7  2  0
  6  8  2  0
  6  9  1  0
  9 10  1  0
 10 11  2  0
 11 12  1  0
 12 13  2  0
 13 14  1  0
 14 15  2  0
 15 16  1  0
 16 17  2  0
 17 18  1  0
 18 19  2  0
 18 20  1  0
 20 21  1  0
 21 22  1  0
 22 23  1  0
 23 24  1  0
 24 25  2  0
 24 26  1  0
 26 27  1  0
 27 28  2  0
 17 29  1  0
 29 30  2  0
  5 31  1  0
 31 32  2  0
 32  3  1  0
 30 10  1  0
 29 13  1  0
 27 21  1  0
  1 33  1  0
  1 34  1  0
  1 35  1  0
  2 36  1  0
  2 37  1  0
  4 38  1  0
 11 39  1  0
 12 40  1  0
 15 41  1  0
 16 42  1  0
 20 43  1  0
 21 44  1  1
 22 45  1  0
 22 46  1  0
 23 47  1  0
 23 48  1  0
 26 49  1  0
 30 50  1  0
 31 51  1  0
M  END
>  <meeko>  (697) 
{"is_sidechain": [true], "free_energy": -11.72, "intermolecular_energy": 0.0, "internal_energy": -11.72, "cluster_size": 9, "cluster_id": 1, "rank_in_cluster": 1}

>  <_RMSD_MCS_to_ref>  (697) 
0.6460928725810245

$$$$
ligand
     RDKit          3D

 54 58  0  0  0  0  0  0  0  0999 V2000
   24.8710    9.6160    7.7820 C   0  0  0  0  0  0  0  0  0  0  0  0
   25.4240   10.9650    7.3490 C   0  0  0  0  0  0  0  0  0  0  0  0
   26.5930   11.3810    8.1690 C   0  0  0  0  0  0  0  0  0  0  0  0
   27.7070   12.1040    7.7880 C   0  0  0  0  0  0  0  0  0  0  0  0
   28.4540   12.1900    8.9300 N   0  0  0  0  0  0  0  0  0  0  0  0
   29.9280   12.9930    9.0770 S   0  0  0  0  0  6  0  0  0  0  0  0
   30.1400   13.2040   10.4990 O   0  0  0  0  0  0  0  0  0  0  0  0
   30.8490   12.1550    8.3250 O   0  0  0  0  0  0  0  0  0  0  0  0
   29.8480   14.4220    8.3080 O   0  0  0  0  0  0  0  0  0  0  0  0
   28.9890   14.6810    7.3130 C   0  0  0  0  0  0  0  0  0  0  0  0
   29.3740   14.5450    6.0480 N   0  0  0  0  0  0  0  0  0  0  0  0
   28.2900   14.9230    5.3490 N   0  0  0  0  0  0  0  0  0  0  0  0
   27.2430   15.3030    6.1400 C   0  0  0  0  0  0  0  0  0  0  0  0
   27.6650   15.1610    7.4460 C   0  0  0  0  0  0  0  0  0  0  0  0
   26.8550   15.4570    8.6160 C   0  0  0  0  0  0  0  0  0  0  0  0
   25.7110   14.6740    8.9020 C   0  0  0  0  0  0  0  0  0  0  0  0
   24.9110   14.9240   10.0280 C   0  0  0  0  0  0  0  0  0  0  0  0
   25.2650   15.9700   10.8590 C   0  0  0  0  0  0  0  0  0  0  0  0
   26.3890   16.7390   10.5710 C   0  0  0  0  0  0  0  0  0  0  0  0
   27.1980   16.5120    9.4720 C   0  0  0  0  0  0  0  0  0  0  0  0
   26.5220   17.7600   11.6140 C   0  0  0  0  0  0  0  0  0  0  0  0
   27.4300   18.5650   11.6900 O   0  0  0  0  0  0  0  0  0  0  0  0
   25.4320   17.6160   12.4580 N   0  0  0  0  0  0  0  0  0  0  0  0
   25.3640   18.2910   13.7490 C   0  0  1  0  0  0  0  0  0  0  0  0
   26.3070   17.6770   14.7800 C   0  0  0  0  0  0  0  0  0  0  0  0
   26.1140   18.3740   16.1180 C   0  0  0  0  0  0  0  0  0  0  0  0
   26.3140   19.8660   15.9900 C   0  0  0  0  0  0  0  0  0  0  0  0
   26.8310   20.5380   16.8760 O   0  0  0  0  0  0  0  0  0  0  0  0
   25.8690   20.4470   14.8290 N   0  0  0  0  0  0  0  0  0  0  0  0
   25.6630   19.7960   13.6330 C   0  0  0  0  0  0  0  0  0  0  0  0
   25.7310   20.4120   12.5730 O   0  0  0  0  0  0  0  0  0  0  0  0
   24.6250   16.4500   12.1190 C   0  0  0  0  0  0  0  0  0  0  0  0
   27.8020   11.5600    9.9400 C   0  0  0  0  0  0  0  0  0  0  0  0
   26.6670   11.0470    9.5080 N   0  0  0  0  0  0  0  0  0  0  0  0
   24.8497    9.5640    8.8806 H   0  0  0  0  0  0  0  0  0  0  0  0
   23.8507    9.4948    7.3893 H   0  0  0  0  0  0  0  0  0  0  0  0
   25.5127    8.8135    7.3893 H   0  0  0  0  0  0  0  0  0  0  0  0
   25.7351   10.8991    6.2960 H   0  0  0  0  0  0  0  0  0  0  0  0
   24.6311   11.7151    7.4853 H   0  0  0  0  0  0  0  0  0  0  0  0
   27.9394   12.5156    6.7947 H   0  0  0  0  0  0  0  0  0  0  0  0
   28.2524   14.9259    4.3197 H   0  0  0  0  0  0  0  0  0  0  0  0
   26.2567   15.6535    5.8020 H   0  0  0  0  0  0  0  0  0  0  0  0
   25.4423   13.8494    8.2253 H   0  0  0  0  0  0  0  0  0  0  0  0
   24.0275   14.3050   10.2428 H   0  0  0  0  0  0  0  0  0  0  0  0
   28.0808   17.1386    9.2767 H   0  0  0  0  0  0  0  0  0  0  0  0
   24.3280   18.1548   14.0929 H   0  0  0  0  0  0  0  0  0  0  0  0
   26.0844   16.6053   14.8888 H   0  0  0  0  0  0  0  0  0  0  0  0
   27.3479   17.8020   14.4469 H   0  0  0  0  0  0  0  0  0  0  0  0
   25.0941   18.1784   16.4808 H   0  0  0  0  0  0  0  0  0  0  0  0
   26.8590   17.9819   16.8260 H   0  0  0  0  0  0  0  0  0  0  0  0
   25.6720   21.4577   14.8544 H   0  0  0  0  0  0  0  0  0  0  0  0
   24.6790   15.6859   12.9085 H   0  0  0  0  0  0  0  0  0  0  0  0
   23.5539   16.6748   12.0089 H   0  0  0  0  0  0  0  0  0  0  0  0
   28.1692   11.4876   10.9744 H   0  0  0  0  0  0  0  0  0  0  0  0
  1  2  1  0
  2  3  1  0
  3  4  2  0
  4  5  1  0
  5  6  1  0
  6  7  2  0
  6  8  2  0
  6  9  1  0
  9 10  1  0
 10 11  2  0
 11 12  1  0
 12 13  1  0
 13 14  2  0
 14 15  1  0
 15 16  2  0
 16 17  1  0
 17 18  2  0
 18 19  1  0
 19 20  2  0
 19 21  1  0
 21 22  2  0
 21 23  1  0
 23 24  1  0
 24 25  1  0
 25 26  1  0
 26 27  1  0
 27 28  2  0
 27 29  1  0
 29 30  1  0
 30 31  2  0
 23 32  1  0
  5 33  1  0
 33 34  2  0
 34  3  1  0
 14 10  1  0
 20 15  1  0
 30 24  1  0
 32 18  1  0
  1 35  1  0
  1 36  1  0
  1 37  1  0
  2 38  1  0
  2 39  1  0
  4 40  1  0
 12 41  1  0
 13 42  1  0
 16 43  1  0
 17 44  1  0
 20 45  1  0
 24 46  1  1
 25 47  1  0
 25 48  1  0
 26 49  1  0
 26 50  1  0
 29 51  1  0
 32 52  1  0
 32 53  1  0
 33 54  1  0
M  END
>  <meeko>  (698) 
{"is_sidechain": [true], "free_energy": -11.72, "intermolecular_energy": 0.0, "internal_energy": -11.72, "cluster_size": 11, "cluster_id": 1, "rank_in_cluster": 1}

>  <_RMSD_MCS_to_ref>  (698) 
1.2777331272391919

$$$$
ligand
     RDKit          3D

 65 69  0  0  0  0  0  0  0  0999 V2000
   24.8540    9.4020    7.6050 C   0  0  0  0  0  0  0  0  0  0  0  0
   25.5230   10.7550    7.4270 C   0  0  0  0  0  0  0  0  0  0  0  0
   24.8010   11.6150    6.4510 C   0  0  0  0  0  0  0  0  0  0  0  0
   25.2630   12.1720    5.2750 C   0  0  0  0  0  0  0  0  0  0  0  0
   24.1850   12.8460    4.7760 N   0  0  0  0  0  0  0  0  0  0  0  0
   24.2040   13.8970    3.4660 S   0  0  0  0  0  6  0  0  0  0  0  0
   22.8220   14.2710    3.2340 O   0  0  0  0  0  0  0  0  0  0  0  0
   25.0140   13.2480    2.4540 O   0  0  0  0  0  0  0  0  0  0  0  0
   25.0770   15.3090    4.0830 C   0  0  0  0  0  0  0  0  0  0  0  0
   25.0760   16.4960    3.3510 C   0  0  0  0  0  0  0  0  0  0  0  0
   25.7660   17.6020    3.8460 C   0  0  0  0  0  0  0  0  0  0  0  0
   26.4520   17.5390    5.0730 C   0  0  0  0  0  0  0  0  0  0  0  0
   26.4400   16.3400    5.8100 C   0  0  0  0  0  0  0  0  0  0  0  0
   25.7420   15.2280    5.3090 C   0  0  0  0  0  0  0  0  0  0  0  0
   27.1520   16.2230    7.1380 C   0  0  0  0  0  0  0  0  0  0  0  0
   26.5300   17.1220    8.2260 C   0  0  1  0  0  0  0  0  0  0  0  0
   26.8990   16.6320    9.5630 N   0  0  0  0  0  0  0  0  0  0  0  0
   26.0290   16.6980   10.6520 C   0  0  0  0  0  0  0  0  0  0  0  0
   24.7530   16.1330   10.6640 C   0  0  0  0  0  0  0  0  0  0  0  0
   23.9110   16.2950   11.7640 C   0  0  0  0  0  0  0  0  0  0  0  0
   24.3210   17.0490   12.8630 C   0  0  0  0  0  0  0  0  0  0  0  0
   25.5720   17.6720   12.8810 C   0  0  0  0  0  0  0  0  0  0  0  0
   26.0020   18.4570   14.0090 N   0  0  0  0  0  0  0  0  0  0  0  0
   26.6830   17.8040   15.1230 C   0  0  0  0  0  0  0  0  0  0  0  0
   26.2910   18.4330   16.4430 C   0  0  0  0  0  0  0  0  0  0  0  0
   26.5340   19.9090   16.3760 C   0  0  0  0  0  0  0  0  0  0  0  0
   26.7080   20.5940   17.3790 O   0  0  0  0  0  0  0  0  0  0  0  0
   26.4600   20.4640   15.1300 N   0  0  0  0  0  0  0  0  0  0  0  0
   25.9870   19.8570   13.9900 C   0  0  0  0  0  0  0  0  0  0  0  0
   25.6100   20.5790   13.0710 O   0  0  0  0  0  0  0  0  0  0  0  0
   26.4020   17.4870   11.7580 C   0  0  0  0  0  0  0  0  0  0  0  0
   27.0350   18.5750    8.1250 C   0  0  0  0  0  0  0  0  0  0  0  0
   26.5970   19.3240    6.8660 C   0  0  0  0  0  0  0  0  0  0  0  0
   27.1820   18.7650    5.5700 C   0  0  0  0  0  0  0  0  0  0  0  0
   23.1480   12.7310    5.6450 C   0  0  0  0  0  0  0  0  0  0  0  0
   23.4860   11.9780    6.6710 N   0  0  0  0  0  0  0  0  0  0  0  0
   24.7464    9.1845    8.6779 H   0  0  0  0  0  0  0  0  0  0  0  0
   23.8606    9.4192    7.1330 H   0  0  0  0  0  0  0  0  0  0  0  0
   25.4708    8.6230    7.1330 H   0  0  0  0  0  0  0  0  0  0  0  0
   25.5491   11.2680    8.3997 H   0  0  0  0  0  0  0  0  0  0  0  0
   26.5374   10.5816    7.0385 H   0  0  0  0  0  0  0  0  0  0  0  0
   26.2698   12.0913    4.8393 H   0  0  0  0  0  0  0  0  0  0  0  0
   24.5371   16.5591    2.3941 H   0  0  0  0  0  0  0  0  0  0  0  0
   25.7742   18.5381    3.2684 H   0  0  0  0  0  0  0  0  0  0  0  0
   25.7191   14.2906    5.8841 H   0  0  0  0  0  0  0  0  0  0  0  0
   27.1011   15.1768    7.4740 H   0  0  0  0  0  0  0  0  0  0  0  0
   28.1912   16.5512    6.9888 H   0  0  0  0  0  0  0  0  0  0  0  0
   25.4411   17.0925    8.0730 H   0  0  0  0  0  0  0  0  0  0  0  0
   27.8350   16.2248    9.7006 H   0  0  0  0  0  0  0  0  0  0  0  0
   24.4072   15.5530    9.7956 H   0  0  0  0  0  0  0  0  0  0  0  0
   22.9166   15.8247   11.7646 H   0  0  0  0  0  0  0  0  0  0  0  0
   23.6502   17.1550   13.7283 H   0  0  0  0  0  0  0  0  0  0  0  0
   26.4095   16.7386   15.1370 H   0  0  0  0  0  0  0  0  0  0  0  0
   27.7683   17.9218   14.9875 H   0  0  0  0  0  0  0  0  0  0  0  0
   25.2251   18.2440   16.6385 H   0  0  0  0  0  0  0  0  0  0  0  0
   26.8921   17.9958   17.2539 H   0  0  0  0  0  0  0  0  0  0  0  0
   26.7917   21.4344   15.0346 H   0  0  0  0  0  0  0  0  0  0  0  0
   27.3850   17.9805   11.7440 H   0  0  0  0  0  0  0  0  0  0  0  0
   26.6607   19.1281    8.9990 H   0  0  0  0  0  0  0  0  0  0  0  0
   28.1327   18.5173    8.0828 H   0  0  0  0  0  0  0  0  0  0  0  0
   25.5002   19.2745    6.7991 H   0  0  0  0  0  0  0  0  0  0  0  0
   26.9717   20.3536    6.9640 H   0  0  0  0  0  0  0  0  0  0  0  0
   27.1261   19.5442    4.7955 H   0  0  0  0  0  0  0  0  0  0  0  0
   28.2201   18.4674    5.7792 H   0  0  0  0  0  0  0  0  0  0  0  0
   22.1628   13.2014    5.5106 H   0  0  0  0  0  0  0  0  0  0  0  0
  1  2  1  0
  2  3  1  0
  3  4  2  0
  4  5  1  0
  5  6  1  0
  6  7  2  0
  6  8  2  0
  6  9  1  0
  9 10  2  0
 10 11  1  0
 11 12  2  0
 12 13  1  0
 13 14  2  0
 13 15  1  0
 15 16  1  0
 16 17  1  0
 17 18  1  0
 18 19  2  0
 19 20  1  0
 20 21  2  0
 21 22  1  0
 22 23  1  0
 23 24  1  0
 24 25  1  0
 25 26  1  0
 26 27  2  0
 26 28  1  0
 28 29  1  0
 29 30  2  0
 22 31  2  0
 16 32  1  0
 32 33  1  0
 33 34  1  0
  5 35  1  0
 35 36  2  0
 36  3  1  0
 14  9  1  0
 31 18  1  0
 34 12  1  0
 29 23  1  0
  1 37  1  0
  1 38  1  0
  1 39  1  0
  2 40  1  0
  2 41  1  0
  4 42  1  0
 10 43  1  0
 11 44  1  0
 14 45  1  0
 15 46  1  0
 15 47  1  0
 16 48  1  1
 17 49  1  0
 19 50  1  0
 20 51  1  0
 21 52  1  0
 24 53  1  0
 24 54  1  0
 25 55  1  0
 25 56  1  0
 28 57  1  0
 31 58  1  0
 32 59  1  0
 32 60  1  0
 33 61  1  0
 33 62  1  0
 34 63  1  0
 34 64  1  0
 35 65  1  0
M  END
>  <meeko>  (699) 
{"is_sidechain": [true], "free_energy": -11.71, "intermolecular_energy": 0.13, "internal_energy": -11.85, "cluster_size": 10, "cluster_id": 1, "rank_in_cluster": 1}

>  <_RMSD_MCS_to_ref>  (699) 
0.9052348452197352

$$$$
ligand
     RDKit          3D

 57 61  0  0  0  0  0  0  0  0999 V2000
   24.8710    9.6160    7.7820 C   0  0  0  0  0  0  0  0  0  0  0  0
   25.4240   10.9650    7.3490 C   0  0  0  0  0  0  0  0  0  0  0  0
   26.6990   11.2970    8.0420 C   0  0  0  0  0  0  0  0  0  0  0  0
   27.9640   11.4470    7.5100 C   0  0  0  0  0  0  0  0  0  0  0  0
   28.7500   11.7250    8.5910 N   0  0  0  0  0  0  0  0  0  0  0  0
   30.3500   12.2250    8.5290 S   0  0  0  0  0  6  0  0  0  0  0  0
   30.6240   12.9060    9.7760 O   0  0  0  0  0  0  0  0  0  0  0  0
   31.1110   11.0940    8.0360 O   0  0  0  0  0  0  0  0  0  0  0  0
   30.5080   13.4440    7.2890 C   0  0  0  0  0  0  0  0  0  0  0  0
   31.6540   13.5360    6.5510 N   0  0  0  0  0  0  0  0  0  0  0  0
   31.6660   14.5680    5.6940 N   0  0  0  0  0  0  0  0  0  0  0  0
   30.4520   15.1110    5.8390 C   0  0  0  0  0  0  0  0  0  0  0  0
   29.6780   14.4360    6.8080 C   0  0  0  0  0  0  0  0  0  0  0  0
   28.3780   14.6380    7.2440 N   0  0  0  0  0  0  0  0  0  0  0  0
   28.0190   14.7480    8.5720 C   0  0  0  0  0  0  0  0  0  0  0  0
   28.7700   14.5940    9.5280 O   0  0  0  0  0  0  0  0  0  0  0  0
   26.5790   15.0280    8.8220 C   0  0  0  0  0  0  0  0  0  0  0  0
   25.5580   14.4750    8.0260 C   0  0  0  0  0  0  0  0  0  0  0  0
   24.2020   14.7390    8.3010 C   0  0  0  0  0  0  0  0  0  0  0  0
   23.8420   15.5600    9.3690 C   0  0  0  0  0  0  0  0  0  0  0  0
   24.8630   16.1100   10.1220 C   0  0  0  0  0  0  0  0  0  0  0  0
   26.2120   15.8680    9.8640 C   0  0  0  0  0  0  0  0  0  0  0  0
   27.0560   16.5950   10.8600 C   0  0  0  0  0  0  0  0  0  0  0  0
   26.0640   17.3010   11.6640 N   0  0  0  0  0  0  0  0  0  0  0  0
   26.3740   17.9260   12.9440 C   0  0  2  0  0  0  0  0  0  0  0  0
   25.7440   17.1920   14.1230 C   0  0  0  0  0  0  0  0  0  0  0  0
   26.1810   17.8520   15.4210 C   0  0  0  0  0  0  0  0  0  0  0  0
   25.8430   19.3250   15.4280 C   0  0  0  0  0  0  0  0  0  0  0  0
   25.5200   19.9200   16.4510 O   0  0  0  0  0  0  0  0  0  0  0  0
   25.9410   19.9830   14.2280 N   0  0  0  0  0  0  0  0  0  0  0  0
   25.9380   19.4020   12.9810 C   0  0  0  0  0  0  0  0  0  0  0  0
   25.6020   20.0520   11.9930 O   0  0  0  0  0  0  0  0  0  0  0  0
   24.7680   16.9830   11.2960 C   0  0  0  0  0  0  0  0  0  0  0  0
   23.7290   17.3310   11.8240 O   0  0  0  0  0  0  0  0  0  0  0  0
   27.9750   11.7930    9.7010 C   0  0  0  0  0  0  0  0  0  0  0  0
   26.7220   11.5220    9.4050 N   0  0  0  0  0  0  0  0  0  0  0  0
   24.8497    9.5640    8.8806 H   0  0  0  0  0  0  0  0  0  0  0  0
   23.8507    9.4948    7.3893 H   0  0  0  0  0  0  0  0  0  0  0  0
   25.5127    8.8135    7.3893 H   0  0  0  0  0  0  0  0  0  0  0  0
   25.6056   10.9421    6.2643 H   0  0  0  0  0  0  0  0  0  0  0  0
   24.6843   11.7348    7.6141 H   0  0  0  0  0  0  0  0  0  0  0  0
   28.2688   11.3620    6.4565 H   0  0  0  0  0  0  0  0  0  0  0  0
   32.4372   12.8736    6.6441 H   0  0  0  0  0  0  0  0  0  0  0  0
   30.0977   15.9826    5.2692 H   0  0  0  0  0  0  0  0  0  0  0  0
   27.6351   14.7104    6.5342 H   0  0  0  0  0  0  0  0  0  0  0  0
   25.8230   13.8275    7.1772 H   0  0  0  0  0  0  0  0  0  0  0  0
   23.4204   14.2937    7.6679 H   0  0  0  0  0  0  0  0  0  0  0  0
   22.7865   15.7623    9.6035 H   0  0  0  0  0  0  0  0  0  0  0  0
   27.6383   15.8928   11.4747 H   0  0  0  0  0  0  0  0  0  0  0  0
   27.7998   17.2615   10.3991 H   0  0  0  0  0  0  0  0  0  0  0  0
   27.4681   17.8674   13.0414 H   0  0  0  0  0  0  0  0  0  0  0  0
   24.6481   17.2364   14.0396 H   0  0  0  0  0  0  0  0  0  0  0  0
   26.0692   16.1412   14.1176 H   0  0  0  0  0  0  0  0  0  0  0  0
   25.6684   17.3626   16.2623 H   0  0  0  0  0  0  0  0  0  0  0  0
   27.2718   17.7452   15.5151 H   0  0  0  0  0  0  0  0  0  0  0  0
   26.0247   21.0090   14.2642 H   0  0  0  0  0  0  0  0  0  0  0  0
   28.3422   12.0401   10.7080 H   0  0  0  0  0  0  0  0  0  0  0  0
  1  2  1  0
  2  3  1  0
  3  4  2  0
  4  5  1  0
  5  6  1  0
  6  7  2  0
  6  8  2  0
  6  9  1  0
  9 10  1  0
 10 11  1  0
 11 12  2  0
 12 13  1  0
 13 14  1  0
 14 15  1  0
 15 16  2  0
 15 17  1  0
 17 18  2  0
 18 19  1  0
 19 20  2  0
 20 21  1  0
 21 22  2  0
 22 23  1  0
 23 24  1  0
 24 25  1  0
 25 26  1  0
 26 27  1  0
 27 28  1  0
 28 29  2  0
 28 30  1  0
 30 31  1  0
 31 32  2  0
 24 33  1  0
 33 34  2  0
  5 35  1  0
 35 36  2  0
 36  3  1  0
 13  9  2  0
 22 17  1  0
 31 25  1  0
 33 21  1  0
  1 37  1  0
  1 38  1  0
  1 39  1  0
  2 40  1  0
  2 41  1  0
  4 42  1  0
 10 43  1  0
 12 44  1  0
 14 45  1  0
 18 46  1  0
 19 47  1  0
 20 48  1  0
 23 49  1  0
 23 50  1  0
 25 51  1  1
 26 52  1  0
 26 53  1  0
 27 54  1  0
 27 55  1  0
 30 56  1  0
 35 57  1  0
M  END
>  <meeko>  (700) 
{"is_sidechain": [true], "free_energy": -11.71, "intermolecular_energy": 0.0, "internal_energy": -11.71, "cluster_size": 5, "cluster_id": 2, "rank_in_cluster": 1}

>  <_RMSD_MCS_to_ref>  (700) 
1.777833669260304

$$$$
ligand
     RDKit          3D

 58 62  0  0  0  0  0  0  0  0999 V2000
   24.8540    9.4020    7.6050 C   0  0  0  0  0  0  0  0  0  0  0  0
   25.5230   10.7550    7.4270 C   0  0  0  0  0  0  0  0  0  0  0  0
   26.9690   10.6290    7.0980 C   0  0  0  0  0  0  0  0  0  0  0  0
   27.6470   11.0760    5.9820 C   0  0  0  0  0  0  0  0  0  0  0  0
   28.9360   10.6770    6.1900 N   0  0  0  0  0  0  0  0  0  0  0  0
   30.2710   11.1140    5.2680 S   0  0  0  0  0  6  0  0  0  0  0  0
   31.4160   10.9180    6.1360 O   0  0  0  0  0  0  0  0  0  0  0  0
   30.1300   10.4270    3.9990 O   0  0  0  0  0  0  0  0  0  0  0  0
   30.0520   12.8530    4.9930 C   0  0  0  0  0  0  0  0  0  0  0  0
   30.6880   13.4670    3.9120 C   0  0  0  0  0  0  0  0  0  0  0  0
   30.5310   14.8370    3.6790 C   0  0  0  0  0  0  0  0  0  0  0  0
   29.7160   15.5480    4.5680 C   0  0  0  0  0  0  0  0  0  0  0  0
   29.3650   16.8700    4.6140 N   0  0  0  0  0  0  0  0  0  0  0  0
   28.5500   17.1930    5.6330 N   0  0  0  0  0  0  0  0  0  0  0  0
   28.3560   16.0220    6.2780 C   0  0  0  0  0  0  0  0  0  0  0  0
   27.5070   15.9400    7.4840 C   0  0  0  0  0  0  0  0  0  0  0  0
   26.6420   15.0800    7.6050 O   0  0  0  0  0  0  0  0  0  0  0  0
   27.8290   16.9210    8.4010 N   0  0  0  0  0  0  0  0  0  0  0  0
   27.2500   17.1770    9.6540 C   0  0  0  0  0  0  0  0  0  0  0  0
   27.6220   18.3610   10.3000 C   0  0  0  0  0  0  0  0  0  0  0  0
   27.0900   18.6910   11.5510 C   0  0  0  0  0  0  0  0  0  0  0  0
   26.1650   17.8470   12.1790 C   0  0  0  0  0  0  0  0  0  0  0  0
   25.5910   18.1640   13.5500 C   0  0  1  0  0  0  0  0  0  0  0  0
   26.2990   17.3250   14.6190 C   0  0  0  0  0  0  0  0  0  0  0  0
   25.6800   17.5950   15.9810 C   0  0  0  0  0  0  0  0  0  0  0  0
   25.7370   19.0640   16.3200 C   0  0  0  0  0  0  0  0  0  0  0  0
   25.7430   19.4710   17.4780 O   0  0  0  0  0  0  0  0  0  0  0  0
   25.7170   19.9350   15.2620 N   0  0  0  0  0  0  0  0  0  0  0  0
   25.6450   19.6470   13.9180 C   0  0  0  0  0  0  0  0  0  0  0  0
   25.5720   20.5640   13.1030 O   0  0  0  0  0  0  0  0  0  0  0  0
   25.8000   16.6600   11.5280 C   0  0  0  0  0  0  0  0  0  0  0  0
   26.3370   16.3300   10.2780 C   0  0  0  0  0  0  0  0  0  0  0  0
   29.0660   14.9580    5.6450 C   0  0  0  0  0  0  0  0  0  0  0  0
   29.2250   13.5760    5.8660 C   0  0  0  0  0  0  0  0  0  0  0  0
   29.0220   10.0610    7.3970 C   0  0  0  0  0  0  0  0  0  0  0  0
   27.8380   10.0060    7.9730 N   0  0  0  0  0  0  0  0  0  0  0  0
   24.7464    9.1845    8.6779 H   0  0  0  0  0  0  0  0  0  0  0  0
   23.8606    9.4192    7.1330 H   0  0  0  0  0  0  0  0  0  0  0  0
   25.4708    8.6230    7.1330 H   0  0  0  0  0  0  0  0  0  0  0  0
   25.0198   11.2942    6.6109 H   0  0  0  0  0  0  0  0  0  0  0  0
   25.4398   11.3003    8.3787 H   0  0  0  0  0  0  0  0  0  0  0  0
   27.2413   11.6279    5.1213 H   0  0  0  0  0  0  0  0  0  0  0  0
   31.3179   12.8679    3.2379 H   0  0  0  0  0  0  0  0  0  0  0  0
   31.0270   15.3350    2.8328 H   0  0  0  0  0  0  0  0  0  0  0  0
   29.6976   17.5599    3.9253 H   0  0  0  0  0  0  0  0  0  0  0  0
   28.5980   17.5499    8.1289 H   0  0  0  0  0  0  0  0  0  0  0  0
   28.3411   19.0402    9.8187 H   0  0  0  0  0  0  0  0  0  0  0  0
   27.4011   19.6225   12.0465 H   0  0  0  0  0  0  0  0  0  0  0  0
   24.5233   17.9031   13.5058 H   0  0  0  0  0  0  0  0  0  0  0  0
   26.1926   16.2577   14.3749 H   0  0  0  0  0  0  0  0  0  0  0  0
   27.3649   17.5955   14.6451 H   0  0  0  0  0  0  0  0  0  0  0  0
   24.6294   17.2691   15.9695 H   0  0  0  0  0  0  0  0  0  0  0  0
   26.2483   17.0381   16.7405 H   0  0  0  0  0  0  0  0  0  0  0  0
   25.7617   20.9351   15.5041 H   0  0  0  0  0  0  0  0  0  0  0  0
   25.0814   15.9783   12.0064 H   0  0  0  0  0  0  0  0  0  0  0  0
   26.0355   15.3942    9.7846 H   0  0  0  0  0  0  0  0  0  0  0  0
   28.7137   13.0761    6.7019 H   0  0  0  0  0  0  0  0  0  0  0  0
   29.9503    9.6634    7.8331 H   0  0  0  0  0  0  0  0  0  0  0  0
  1  2  1  0
  2  3  1  0
  3  4  2  0
  4  5  1  0
  5  6  1  0
  6  7  2  0
  6  8  2  0
  6  9  1  0
  9 10  2  0
 10 11  1  0
 11 12  2  0
 12 13  1  0
 13 14  1  0
 14 15  2  0
 15 16  1  0
 16 17  2  0
 16 18  1  0
 18 19  1  0
 19 20  2  0
 20 21  1  0
 21 22  2  0
 22 23  1  0
 23 24  1  0
 24 25  1  0
 25 26  1  0
 26 27  2  0
 26 28  1  0
 28 29  1  0
 29 30  2  0
 22 31  1  0
 31 32  2  0
 15 33  1  0
 33 34  2  0
  5 35  1  0
 35 36  2  0
 36  3  1  0
 34  9  1  0
 33 12  1  0
 32 19  1  0
 29 23  1  0
  1 37  1  0
  1 38  1  0
  1 39  1  0
  2 40  1  0
  2 41  1  0
  4 42  1  0
 10 43  1  0
 11 44  1  0
 13 45  1  0
 18 46  1  0
 20 47  1  0
 21 48  1  0
 23 49  1  6
 24 50  1  0
 24 51  1  0
 25 52  1  0
 25 53  1  0
 28 54  1  0
 31 55  1  0
 32 56  1  0
 34 57  1  0
 35 58  1  0
M  END
>  <meeko>  (701) 
{"is_sidechain": [true], "free_energy": -11.7, "intermolecular_energy": 0.0, "internal_energy": -11.7, "cluster_size": 20, "cluster_id": 1, "rank_in_cluster": 1}

>  <_RMSD_MCS_to_ref>  (701) 
1.336248105704925

$$$$
ligand
     RDKit          3D

 60 64  0  0  0  0  0  0  0  0999 V2000
   24.8540    9.4020    7.6050 C   0  0  0  0  0  0  0  0  0  0  0  0
   25.5230   10.7550    7.4270 C   0  0  0  0  0  0  0  0  0  0  0  0
   24.8290   11.5980    6.4170 C   0  0  0  0  0  0  0  0  0  0  0  0
   25.2390   11.9460    5.1440 C   0  0  0  0  0  0  0  0  0  0  0  0
   24.2200   12.7140    4.6630 N   0  0  0  0  0  0  0  0  0  0  0  0
   24.2150   13.5470    3.2120 S   0  0  0  0  0  6  0  0  0  0  0  0
   24.6380   12.6080    2.1910 O   0  0  0  0  0  0  0  0  0  0  0  0
   22.9500   14.2520    3.1380 O   0  0  0  0  0  0  0  0  0  0  0  0
   25.4410   14.7850    3.2430 C   0  0  0  0  0  0  0  0  0  0  0  0
   26.0070   15.3410    2.1890 N   0  0  0  0  0  0  0  0  0  0  0  0
   26.9120   16.2810    2.6330 N   0  0  0  0  0  0  0  0  0  0  0  0
   26.8810   16.2790    3.9470 C   0  0  0  0  0  0  0  0  0  0  0  0
   25.9720   15.3470    4.3660 N   0  0  0  0  0  0  0  0  0  0  0  0
   25.6430   15.1080    5.7550 C   0  0  0  0  0  0  0  0  0  0  0  0
   26.6730   15.7700    6.6860 C   0  0  2  0  0  0  0  0  0  0  0  0
   26.1210   15.8160    8.1230 C   0  0  0  0  0  0  0  0  0  0  0  0
   25.4290   14.9070    8.5690 O   0  0  0  0  0  0  0  0  0  0  0  0
   26.5530   16.9420    8.8020 N   0  0  0  0  0  0  0  0  0  0  0  0
   26.2850   17.3170   10.1300 C   0  0  0  0  0  0  0  0  0  0  0  0
   25.2660   16.7660   10.9040 C   0  0  0  0  0  0  0  0  0  0  0  0
   25.0600   17.1980   12.2190 C   0  0  0  0  0  0  0  0  0  0  0  0
   25.8690   18.1910   12.7860 C   0  0  0  0  0  0  0  0  0  0  0  0
   25.6400   18.6210   14.2270 C   0  0  1  0  0  0  0  0  0  0  0  0
   26.6700   17.9530   15.1440 C   0  0  0  0  0  0  0  0  0  0  0  0
   26.3960   18.3320   16.5900 C   0  0  0  0  0  0  0  0  0  0  0  0
   26.4040   19.8300   16.7680 C   0  0  0  0  0  0  0  0  0  0  0  0
   26.6730   20.3640   17.8400 O   0  0  0  0  0  0  0  0  0  0  0  0
   26.0320   20.5770   15.6790 N   0  0  0  0  0  0  0  0  0  0  0  0
   25.6530   20.1360   14.4310 C   0  0  0  0  0  0  0  0  0  0  0  0
   25.3010   20.9510   13.5810 O   0  0  0  0  0  0  0  0  0  0  0  0
   26.9000   18.7340   12.0090 C   0  0  0  0  0  0  0  0  0  0  0  0
   27.1020   18.3020   10.6930 C   0  0  0  0  0  0  0  0  0  0  0  0
   27.0580   17.1470    6.2430 N   0  0  0  0  0  0  0  0  0  0  0  0
   27.6810   17.0870    4.9050 C   0  0  0  0  0  0  0  0  0  0  0  0
   23.2810   12.8670    5.6300 C   0  0  0  0  0  0  0  0  0  0  0  0
   23.6060   12.1740    6.7010 N   0  0  0  0  0  0  0  0  0  0  0  0
   24.7464    9.1845    8.6779 H   0  0  0  0  0  0  0  0  0  0  0  0
   23.8606    9.4192    7.1330 H   0  0  0  0  0  0  0  0  0  0  0  0
   25.4708    8.6230    7.1330 H   0  0  0  0  0  0  0  0  0  0  0  0
   25.5174   11.2824    8.3923 H   0  0  0  0  0  0  0  0  0  0  0  0
   26.5492   10.5795    7.0718 H   0  0  0  0  0  0  0  0  0  0  0  0
   26.1735   11.6673    4.6351 H   0  0  0  0  0  0  0  0  0  0  0  0
   24.6471   15.5247    5.9658 H   0  0  0  0  0  0  0  0  0  0  0  0
   25.6524   14.0231    5.9362 H   0  0  0  0  0  0  0  0  0  0  0  0
   27.5847   15.1557    6.6483 H   0  0  0  0  0  0  0  0  0  0  0  0
   27.1478   17.5889    8.2648 H   0  0  0  0  0  0  0  0  0  0  0  0
   24.6184   15.9854   10.4782 H   0  0  0  0  0  0  0  0  0  0  0  0
   24.2512   16.7514   12.8159 H   0  0  0  0  0  0  0  0  0  0  0  0
   24.6250   18.2884   14.4901 H   0  0  0  0  0  0  0  0  0  0  0  0
   26.6025   16.8606   15.0339 H   0  0  0  0  0  0  0  0  0  0  0  0
   27.6783   18.2926   14.8649 H   0  0  0  0  0  0  0  0  0  0  0  0
   25.4110   17.9402   16.8839 H   0  0  0  0  0  0  0  0  0  0  0  0
   27.1869   17.9003   17.2209 H   0  0  0  0  0  0  0  0  0  0  0  0
   26.0369   21.5984   15.8121 H   0  0  0  0  0  0  0  0  0  0  0  0
   27.5564   19.5063   12.4364 H   0  0  0  0  0  0  0  0  0  0  0  0
   27.9131   18.7427   10.0947 H   0  0  0  0  0  0  0  0  0  0  0  0
   26.2172   17.7406    6.2023 H   0  0  0  0  0  0  0  0  0  0  0  0
   27.7756   18.1102    4.5124 H   0  0  0  0  0  0  0  0  0  0  0  0
   28.6644   16.6061    5.0124 H   0  0  0  0  0  0  0  0  0  0  0  0
   22.3752   13.4835    5.5328 H   0  0  0  0  0  0  0  0  0  0  0  0
  1  2  1  0
  2  3  1  0
  3  4  2  0
  4  5  1  0
  5  6  1  0
  6  7  2  0
  6  8  2  0
  6  9  1  0
  9 10  2  0
 10 11  1  0
 11 12  2  0
 12 13  1  0
 13 14  1  0
 14 15  1  0
 15 16  1  0
 16 17  2  0
 16 18  1  0
 18 19  1  0
 19 20  2  0
 20 21  1  0
 21 22  2  0
 22 23  1  0
 23 24  1  0
 24 25  1  0
 25 26  1  0
 26 27  2  0
 26 28  1  0
 28 29  1  0
 29 30  2  0
 22 31  1  0
 31 32  2  0
 15 33  1  0
 33 34  1  0
  5 35  1  0
 35 36  2  0
 36  3  1  0
 13  9  1  0
 32 19  1  0
 34 12  1  0
 29 23  1  0
  1 37  1  0
  1 38  1  0
  1 39  1  0
  2 40  1  0
  2 41  1  0
  4 42  1  0
 14 43  1  0
 14 44  1  0
 15 45  1  1
 18 46  1  0
 20 47  1  0
 21 48  1  0
 23 49  1  1
 24 50  1  0
 24 51  1  0
 25 52  1  0
 25 53  1  0
 28 54  1  0
 31 55  1  0
 32 56  1  0
 33 57  1  0
 34 58  1  0
 34 59  1  0
 35 60  1  0
M  END
>  <meeko>  (702) 
{"is_sidechain": [true], "free_energy": -11.7, "intermolecular_energy": 0.0, "internal_energy": -11.7, "cluster_size": 10, "cluster_id": 1, "rank_in_cluster": 1}

>  <_RMSD_MCS_to_ref>  (702) 
0.7764120201284875

$$$$
ligand
     RDKit          3D

 63 68  0  0  0  0  0  0  0  0999 V2000
   24.8540    9.4020    7.6050 C   0  0  0  0  0  0  0  0  0  0  0  0
   25.5230   10.7550    7.4270 C   0  0  0  0  0  0  0  0  0  0  0  0
   25.0610   11.4520    6.1950 C   0  0  0  0  0  0  0  0  0  0  0  0
   25.4780   12.6600    5.6740 C   0  0  0  0  0  0  0  0  0  0  0  0
   24.7370   12.8080    4.5370 N   0  0  0  0  0  0  0  0  0  0  0  0
   24.6630   14.1780    3.5660 S   0  0  0  0  0  6  0  0  0  0  0  0
   23.2460   14.4390    3.3810 O   0  0  0  0  0  0  0  0  0  0  0  0
   25.5440   13.9250    2.4430 O   0  0  0  0  0  0  0  0  0  0  0  0
   25.3450   15.4570    4.5830 C   0  0  0  0  0  0  0  0  0  0  0  0
   25.0150   15.4760    5.9500 C   0  0  0  0  0  0  0  0  0  0  0  0
   25.5040   16.4800    6.8140 C   0  0  0  0  0  0  0  0  0  0  0  0
   25.1470   16.4840    8.2430 C   0  0  0  0  0  0  0  0  0  0  0  0
   24.0620   15.7040    8.7220 C   0  0  0  0  0  0  0  0  0  0  0  0
   23.6970   15.6880   10.0770 C   0  0  0  0  0  0  0  0  0  0  0  0
   24.4300   16.4600   10.9560 C   0  0  0  0  0  0  0  0  0  0  0  0
   25.4950   17.2260   10.4920 C   0  0  0  0  0  0  0  0  0  0  0  0
   25.8710   17.2620    9.1600 C   0  0  0  0  0  0  0  0  0  0  0  0
   26.0760   17.9390   11.6330 C   0  0  0  0  0  0  0  0  0  0  0  0
   26.9700   18.7590   11.5520 O   0  0  0  0  0  0  0  0  0  0  0  0
   25.3970   17.5080   12.7640 N   0  0  0  0  0  0  0  0  0  0  0  0
   25.5090   18.1330   14.0780 C   0  0  1  0  0  0  0  0  0  0  0  0
   26.6760   17.6050   14.9130 C   0  0  0  0  0  0  0  0  0  0  0  0
   26.6620   18.2760   16.2770 C   0  0  0  0  0  0  0  0  0  0  0  0
   26.7160   19.7810   16.1500 C   0  0  0  0  0  0  0  0  0  0  0  0
   27.1250   20.5000   17.0560 O   0  0  0  0  0  0  0  0  0  0  0  0
   26.2030   20.3200   14.9960 N   0  0  0  0  0  0  0  0  0  0  0  0
   25.5780   19.6640   13.9600 C   0  0  0  0  0  0  0  0  0  0  0  0
   25.0250   20.3020   13.0660 O   0  0  0  0  0  0  0  0  0  0  0  0
   24.2640   16.6580   12.4250 C   0  0  0  0  0  0  0  0  0  0  0  0
   26.3300   17.4810    6.2760 C   0  0  0  0  0  0  0  0  0  0  0  0
   26.6490   17.4550    4.9250 C   0  0  0  0  0  0  0  0  0  0  0  0
   26.1650   16.4540    4.0740 C   0  0  0  0  0  0  0  0  0  0  0  0
   26.6180   16.7170    2.6680 C   0  0  0  0  0  0  0  0  0  0  0  0
   27.7840   17.6890    2.8940 C   0  0  0  0  0  0  0  0  0  0  0  0
   27.4610   18.4650    4.1730 C   0  0  0  0  0  0  0  0  0  0  0  0
   23.8990   11.7470    4.4110 C   0  0  0  0  0  0  0  0  0  0  0  0
   24.0760   10.8980    5.4020 N   0  0  0  0  0  0  0  0  0  0  0  0
   24.7464    9.1845    8.6779 H   0  0  0  0  0  0  0  0  0  0  0  0
   23.8606    9.4192    7.1330 H   0  0  0  0  0  0  0  0  0  0  0  0
   25.4708    8.6230    7.1330 H   0  0  0  0  0  0  0  0  0  0  0  0
   25.2889   11.3836    8.2988 H   0  0  0  0  0  0  0  0  0  0  0  0
   26.6062   10.5871    7.3345 H   0  0  0  0  0  0  0  0  0  0  0  0
   26.2345   13.3466    6.0817 H   0  0  0  0  0  0  0  0  0  0  0  0
   24.3606   14.6903    6.3556 H   0  0  0  0  0  0  0  0  0  0  0  0
   23.4894   15.0930    8.0087 H   0  0  0  0  0  0  0  0  0  0  0  0
   22.8516   15.0782   10.4284 H   0  0  0  0  0  0  0  0  0  0  0  0
   26.7154   17.8843    8.8288 H   0  0  0  0  0  0  0  0  0  0  0  0
   24.5923   17.8542   14.6183 H   0  0  0  0  0  0  0  0  0  0  0  0
   26.5757   16.5167   15.0378 H   0  0  0  0  0  0  0  0  0  0  0  0
   27.6247   17.8276   14.4026 H   0  0  0  0  0  0  0  0  0  0  0  0
   25.7394   17.9940   16.8054 H   0  0  0  0  0  0  0  0  0  0  0  0
   27.5486   17.9431   16.8365 H   0  0  0  0  0  0  0  0  0  0  0  0
   26.2975   21.3405   14.8930 H   0  0  0  0  0  0  0  0  0  0  0  0
   24.3126   15.6994   12.9624 H   0  0  0  0  0  0  0  0  0  0  0  0
   23.2928   17.0956   12.6993 H   0  0  0  0  0  0  0  0  0  0  0  0
   26.7218   18.2809    6.9215 H   0  0  0  0  0  0  0  0  0  0  0  0
   26.9558   15.7930    2.1760 H   0  0  0  0  0  0  0  0  0  0  0  0
   25.8289   17.1111    2.0108 H   0  0  0  0  0  0  0  0  0  0  0  0
   28.7250   17.1322    3.0147 H   0  0  0  0  0  0  0  0  0  0  0  0
   27.9078   18.3678    2.0373 H   0  0  0  0  0  0  0  0  0  0  0  0
   28.3748   18.7375    4.7214 H   0  0  0  0  0  0  0  0  0  0  0  0
   26.9479   19.4232    4.0038 H   0  0  0  0  0  0  0  0  0  0  0  0
   23.1734   11.6151    3.5949 H   0  0  0  0  0  0  0  0  0  0  0  0
  1  2  1  0
  2  3  1  0
  3  4  2  0
  4  5  1  0
  5  6  1  0
  6  7  2  0
  6  8  2  0
  6  9  1  0
  9 10  2  0
 10 11  1  0
 11 12  1  0
 12 13  2  0
 13 14  1  0
 14 15  2  0
 15 16  1  0
 16 17  2  0
 16 18  1  0
 18 19  2  0
 18 20  1  0
 20 21  1  0
 21 22  1  0
 22 23  1  0
 23 24  1  0
 24 25  2  0
 24 26  1  0
 26 27  1  0
 27 28  2  0
 20 29  1  0
 11 30  2  0
 30 31  1  0
 31 32  2  0
 32 33  1  0
 33 34  1  0
 34 35  1  0
  5 36  1  0
 36 37  2  0
 37  3  1  0
 32  9  1  0
 17 12  1  0
 27 21  1  0
 35 31  1  0
 29 15  1  0
  1 38  1  0
  1 39  1  0
  1 40  1  0
  2 41  1  0
  2 42  1  0
  4 43  1  0
 10 44  1  0
 13 45  1  0
 14 46  1  0
 17 47  1  0
 21 48  1  1
 22 49  1  0
 22 50  1  0
 23 51  1  0
 23 52  1  0
 26 53  1  0
 29 54  1  0
 29 55  1  0
 30 56  1  0
 33 57  1  0
 33 58  1  0
 34 59  1  0
 34 60  1  0
 35 61  1  0
 35 62  1  0
 36 63  1  0
M  END
>  <meeko>  (703) 
{"is_sidechain": [true], "free_energy": -11.7, "intermolecular_energy": 0.0, "internal_energy": -11.7, "cluster_size": 20, "cluster_id": 1, "rank_in_cluster": 1}

>  <_RMSD_MCS_to_ref>  (703) 
0.7320185941779216

$$$$
ligand
     RDKit          3D

 54 58  0  0  0  0  0  0  0  0999 V2000
   24.8540    9.4020    7.6050 C   0  0  0  0  0  0  0  0  0  0  0  0
   25.5230   10.7550    7.4270 C   0  0  0  0  0  0  0  0  0  0  0  0
   25.0780   11.4430    6.1850 C   0  0  0  0  0  0  0  0  0  0  0  0
   25.4440   12.6840    5.7000 C   0  0  0  0  0  0  0  0  0  0  0  0
   24.7650   12.7950    4.5200 N   0  0  0  0  0  0  0  0  0  0  0  0
   24.6460   14.1870    3.5780 S   0  0  0  0  0  6  0  0  0  0  0  0
   25.0960   13.7790    2.2590 O   0  0  0  0  0  0  0  0  0  0  0  0
   23.2920   14.6660    3.7960 O   0  0  0  0  0  0  0  0  0  0  0  0
   25.7020   15.2440    4.2080 O   0  0  0  0  0  0  0  0  0  0  0  0
   25.7920   15.4340    5.5300 C   0  0  0  0  0  0  0  0  0  0  0  0
   24.8200   15.7360    6.4980 C   0  0  0  0  0  0  0  0  0  0  0  0
   25.5130   15.8150    7.6930 C   0  0  0  0  0  0  0  0  0  0  0  0
   25.0630   16.0880    9.0580 C   0  0  0  0  0  0  0  0  0  0  0  0
   23.9340   15.4080    9.5780 C   0  0  0  0  0  0  0  0  0  0  0  0
   23.4700   15.6340   10.8830 C   0  0  0  0  0  0  0  0  0  0  0  0
   24.1440   16.5520   11.6620 C   0  0  0  0  0  0  0  0  0  0  0  0
   25.2490   17.2230   11.1470 C   0  0  0  0  0  0  0  0  0  0  0  0
   25.7300   17.0180    9.8670 C   0  0  0  0  0  0  0  0  0  0  0  0
   25.7600   18.1240   12.1850 C   0  0  0  0  0  0  0  0  0  0  0  0
   26.7560   18.8130   12.0770 O   0  0  0  0  0  0  0  0  0  0  0  0
   24.8990   18.0210   13.2670 N   0  0  0  0  0  0  0  0  0  0  0  0
   25.2360   18.5750   14.5720 C   0  0  1  0  0  0  0  0  0  0  0  0
   26.4410   17.8850   15.2070 C   0  0  0  0  0  0  0  0  0  0  0  0
   26.6740   18.4560   16.5980 C   0  0  0  0  0  0  0  0  0  0  0  0
   26.8420   19.9560   16.5500 C   0  0  0  0  0  0  0  0  0  0  0  0
   27.6150   20.5550   17.2930 O   0  0  0  0  0  0  0  0  0  0  0  0
   26.0710   20.6330   15.6390 N   0  0  0  0  0  0  0  0  0  0  0  0
   25.5020   20.0880   14.5090 C   0  0  0  0  0  0  0  0  0  0  0  0
   25.2500   20.7990   13.5390 O   0  0  0  0  0  0  0  0  0  0  0  0
   23.8960   16.9810   13.0700 C   0  0  0  0  0  0  0  0  0  0  0  0
   26.8200   15.5480    7.3550 N   0  0  0  0  0  0  0  0  0  0  0  0
   27.0140   15.3180    6.0450 N   0  0  0  0  0  0  0  0  0  0  0  0
   23.9700   11.7070    4.3600 C   0  0  0  0  0  0  0  0  0  0  0  0
   24.1590   10.8490    5.3410 N   0  0  0  0  0  0  0  0  0  0  0  0
   24.7464    9.1845    8.6779 H   0  0  0  0  0  0  0  0  0  0  0  0
   23.8606    9.4192    7.1330 H   0  0  0  0  0  0  0  0  0  0  0  0
   25.4708    8.6230    7.1330 H   0  0  0  0  0  0  0  0  0  0  0  0
   25.2756   11.3890    8.2912 H   0  0  0  0  0  0  0  0  0  0  0  0
   26.6075   10.5880    7.3505 H   0  0  0  0  0  0  0  0  0  0  0  0
   26.1259   13.4150    6.1590 H   0  0  0  0  0  0  0  0  0  0  0  0
   23.7408   15.8789    6.3401 H   0  0  0  0  0  0  0  0  0  0  0  0
   23.4065   14.6827    8.9411 H   0  0  0  0  0  0  0  0  0  0  0  0
   22.5943   15.0949   11.2736 H   0  0  0  0  0  0  0  0  0  0  0  0
   26.6078   17.5671    9.4956 H   0  0  0  0  0  0  0  0  0  0  0  0
   24.3526   18.3913   15.2012 H   0  0  0  0  0  0  0  0  0  0  0  0
   26.2485   16.8045   15.2811 H   0  0  0  0  0  0  0  0  0  0  0  0
   27.3323   18.0554   14.5853 H   0  0  0  0  0  0  0  0  0  0  0  0
   25.8116   18.2115   17.2356 H   0  0  0  0  0  0  0  0  0  0  0  0
   27.5950   18.0147   17.0066 H   0  0  0  0  0  0  0  0  0  0  0  0
   25.9034   21.6339   15.8150 H   0  0  0  0  0  0  0  0  0  0  0  0
   24.0457   16.1470   13.7714 H   0  0  0  0  0  0  0  0  0  0  0  0
   22.8668   17.3265   13.2473 H   0  0  0  0  0  0  0  0  0  0  0  0
   27.5835   15.5263    8.0460 H   0  0  0  0  0  0  0  0  0  0  0  0
   23.2661   11.5620    3.5273 H   0  0  0  0  0  0  0  0  0  0  0  0
  1  2  1  0
  2  3  1  0
  3  4  2  0
  4  5  1  0
  5  6  1  0
  6  7  2  0
  6  8  2  0
  6  9  1  0
  9 10  1  0
 10 11  1  0
 11 12  2  0
 12 13  1  0
 13 14  2  0
 14 15  1  0
 15 16  2  0
 16 17  1  0
 17 18  2  0
 17 19  1  0
 19 20  2  0
 19 21  1  0
 21 22  1  0
 22 23  1  0
 23 24  1  0
 24 25  1  0
 25 26  2  0
 25 27  1  0
 27 28  1  0
 28 29  2  0
 21 30  1  0
 12 31  1  0
 31 32  1  0
  5 33  1  0
 33 34  2  0
 34  3  1  0
 32 10  2  0
 18 13  1  0
 28 22  1  0
 30 16  1  0
  1 35  1  0
  1 36  1  0
  1 37  1  0
  2 38  1  0
  2 39  1  0
  4 40  1  0
 11 41  1  0
 14 42  1  0
 15 43  1  0
 18 44  1  0
 22 45  1  1
 23 46  1  0
 23 47  1  0
 24 48  1  0
 24 49  1  0
 27 50  1  0
 30 51  1  0
 30 52  1  0
 31 53  1  0
 33 54  1  0
M  END
>  <meeko>  (704) 
{"is_sidechain": [true], "free_energy": -11.7, "intermolecular_energy": 0.0, "internal_energy": -11.7, "cluster_size": 19, "cluster_id": 1, "rank_in_cluster": 1}

>  <_RMSD_MCS_to_ref>  (704) 
0.46005784660433896

$$$$
ligand
     RDKit          3D

 48 51  0  0  0  0  0  0  0  0999 V2000
   24.8710    9.6160    7.7820 C   0  0  0  0  0  0  0  0  0  0  0  0
   25.4240   10.9650    7.3490 C   0  0  0  0  0  0  0  0  0  0  0  0
   26.4860   11.4590    8.2660 C   0  0  0  0  0  0  0  0  0  0  0  0
   27.2860   12.5790    8.1460 C   0  0  0  0  0  0  0  0  0  0  0  0
   28.0620   12.5560    9.2690 N   0  0  0  0  0  0  0  0  0  0  0  0
   29.2740   13.6670    9.6460 S   0  0  0  0  0  6  0  0  0  0  0  0
   29.7860   13.1890   10.9210 O   0  0  0  0  0  0  0  0  0  0  0  0
   30.1460   13.7260    8.4860 O   0  0  0  0  0  0  0  0  0  0  0  0
   28.6040   15.1240    9.9120 O   0  0  0  0  0  0  0  0  0  0  0  0
   27.2890   15.3180   10.0750 C   0  0  0  0  0  0  0  0  0  0  0  0
   26.6650   15.7950   11.2340 C   0  0  0  0  0  0  0  0  0  0  0  0
   25.3260   15.7830   10.9170 C   0  0  0  0  0  0  0  0  0  0  0  0
   24.1050   16.1350   11.5960 C   0  0  0  0  0  0  0  0  0  0  0  0
   24.1670   16.6780   13.0300 C   0  0  0  0  0  0  0  0  0  0  0  0
   23.3960   16.2980   13.8970 O   0  0  0  0  0  0  0  0  0  0  0  0
   25.1460   17.6300   13.2120 N   0  0  0  0  0  0  0  0  0  0  0  0
   25.2350   18.4170   14.4300 C   0  0  1  0  0  0  0  0  0  0  0  0
   26.0790   17.7260   15.4970 C   0  0  0  0  0  0  0  0  0  0  0  0
   26.1590   18.6090   16.7330 C   0  0  0  0  0  0  0  0  0  0  0  0
   26.6960   19.9800   16.3940 C   0  0  0  0  0  0  0  0  0  0  0  0
   27.3800   20.6300   17.1780 O   0  0  0  0  0  0  0  0  0  0  0  0
   26.3520   20.4880   15.1680 N   0  0  0  0  0  0  0  0  0  0  0  0
   25.8580   19.7780   14.1010 C   0  0  0  0  0  0  0  0  0  0  0  0
   25.9000   20.2350   12.9600 O   0  0  0  0  0  0  0  0  0  0  0  0
   22.9300   16.0210   11.0290 N   0  0  0  0  0  0  0  0  0  0  0  0
   22.8860   15.5330    9.7380 C   0  0  0  0  0  0  0  0  0  0  0  0
   23.9750   15.1800    9.0380 C   0  0  0  0  0  0  0  0  0  0  0  0
   25.2210   15.3040    9.6260 N   0  0  0  0  0  0  0  0  0  0  0  0
   26.4370   15.0090    9.1060 N   0  0  0  0  0  0  0  0  0  0  0  0
   27.7500   11.4600   10.0070 C   0  0  0  0  0  0  0  0  0  0  0  0
   26.7860   10.7730    9.4270 N   0  0  0  0  0  0  0  0  0  0  0  0
   24.8497    9.5640    8.8806 H   0  0  0  0  0  0  0  0  0  0  0  0
   23.8507    9.4948    7.3893 H   0  0  0  0  0  0  0  0  0  0  0  0
   25.5127    8.8135    7.3893 H   0  0  0  0  0  0  0  0  0  0  0  0
   25.8468   10.8664    6.3383 H   0  0  0  0  0  0  0  0  0  0  0  0
   24.5973   11.6903    7.3689 H   0  0  0  0  0  0  0  0  0  0  0  0
   27.2955   13.3193    7.3324 H   0  0  0  0  0  0  0  0  0  0  0  0
   27.1355   16.1068   12.1781 H   0  0  0  0  0  0  0  0  0  0  0  0
   25.8349   17.7884   12.4628 H   0  0  0  0  0  0  0  0  0  0  0  0
   24.2177   18.5376   14.8306 H   0  0  0  0  0  0  0  0  0  0  0  0
   25.6170   16.7639   15.7633 H   0  0  0  0  0  0  0  0  0  0  0  0
   27.0921   17.5513   15.1058 H   0  0  0  0  0  0  0  0  0  0  0  0
   25.1523   18.7148   17.1636 H   0  0  0  0  0  0  0  0  0  0  0  0
   26.8427   18.1366   17.4537 H   0  0  0  0  0  0  0  0  0  0  0  0
   26.4762   21.5016   15.0338 H   0  0  0  0  0  0  0  0  0  0  0  0
   21.9027   15.4277    9.2562 H   0  0  0  0  0  0  0  0  0  0  0  0
   23.8783   14.7975    8.0112 H   0  0  0  0  0  0  0  0  0  0  0  0
   28.2337   11.1840   10.9556 H   0  0  0  0  0  0  0  0  0  0  0  0
  1  2  1  0
  2  3  1  0
  3  4  2  0
  4  5  1  0
  5  6  1  0
  6  7  2  0
  6  8  2  0
  6  9  1  0
  9 10  1  0
 10 11  1  0
 11 12  2  0
 12 13  1  0
 13 14  1  0
 14 15  2  0
 14 16  1  0
 16 17  1  0
 17 18  1  0
 18 19  1  0
 19 20  1  0
 20 21  2  0
 20 22  1  0
 22 23  1  0
 23 24  2  0
 13 25  2  0
 25 26  1  0
 26 27  2  0
 27 28  1  0
 28 29  1  0
  5 30  1  0
 30 31  2  0
 31  3  1  0
 29 10  2  0
 28 12  1  0
 23 17  1  0
  1 32  1  0
  1 33  1  0
  1 34  1  0
  2 35  1  0
  2 36  1  0
  4 37  1  0
 11 38  1  0
 16 39  1  0
 17 40  1  1
 18 41  1  0
 18 42  1  0
 19 43  1  0
 19 44  1  0
 22 45  1  0
 26 46  1  0
 27 47  1  0
 30 48  1  0
M  END
>  <meeko>  (705) 
{"is_sidechain": [true], "free_energy": -11.7, "intermolecular_energy": 0.0, "internal_energy": -11.7, "cluster_size": 18, "cluster_id": 1, "rank_in_cluster": 1}

>  <_RMSD_MCS_to_ref>  (705) 
0.685459780812201

$$$$
ligand
     RDKit          3D

 62 67  0  0  0  0  0  0  0  0999 V2000
   24.8540    9.4020    7.6050 C   0  0  0  0  0  0  0  0  0  0  0  0
   25.5230   10.7550    7.4270 C   0  0  0  0  0  0  0  0  0  0  0  0
   25.7400   11.0920    5.9940 C   0  0  0  0  0  0  0  0  0  0  0  0
   24.8100   11.2160    4.9790 C   0  0  0  0  0  0  0  0  0  0  0  0
   25.5570   11.5060    3.8730 N   0  0  0  0  0  0  0  0  0  0  0  0
   24.9530   12.0020    2.3800 S   0  0  0  0  0  6  0  0  0  0  0  0
   23.8000   11.1530    2.1490 O   0  0  0  0  0  0  0  0  0  0  0  0
   26.1020   11.9810    1.4930 O   0  0  0  0  0  0  0  0  0  0  0  0
   24.4590   13.5410    2.5880 O   0  0  0  0  0  0  0  0  0  0  0  0
   24.6300   14.2220    3.7660 C   0  0  0  0  0  0  0  0  0  0  0  0
   25.3790   15.3840    3.9270 C   0  0  0  0  0  0  0  0  0  0  0  0
   25.4690   15.9770    5.1880 C   0  0  0  0  0  0  0  0  0  0  0  0
   24.8100   15.4100    6.2920 C   0  0  0  0  0  0  0  0  0  0  0  0
   24.8840   15.9830    7.5720 C   0  0  0  0  0  0  0  0  0  0  0  0
   24.2210   15.3990    8.6560 C   0  0  0  0  0  0  0  0  0  0  0  0
   24.2840   15.9730   10.0080 C   0  0  0  0  0  0  0  0  0  0  0  0
   23.2730   15.6850   10.9600 C   0  0  0  0  0  0  0  0  0  0  0  0
   23.3080   16.2170   12.2520 C   0  0  0  0  0  0  0  0  0  0  0  0
   24.3680   17.0420   12.5680 C   0  0  0  0  0  0  0  0  0  0  0  0
   25.3790   17.3470   11.6600 C   0  0  0  0  0  0  0  0  0  0  0  0
   25.3500   16.8190   10.3790 C   0  0  0  0  0  0  0  0  0  0  0  0
   26.3860   18.2440   12.3000 C   0  0  0  0  0  0  0  0  0  0  0  0
   25.8040   18.4890   13.6140 N   0  0  0  0  0  0  0  0  0  0  0  0
   26.5340   19.1090   14.7130 C   0  0  2  0  0  0  0  0  0  0  0  0
   26.3000   18.3970   16.0430 C   0  0  0  0  0  0  0  0  0  0  0  0
   27.1620   19.0430   17.1190 C   0  0  0  0  0  0  0  0  0  0  0  0
   26.8920   20.5260   17.2160 C   0  0  0  0  0  0  0  0  0  0  0  0
   26.9090   21.1280   18.2860 O   0  0  0  0  0  0  0  0  0  0  0  0
   26.6410   21.1820   16.0380 N   0  0  0  0  0  0  0  0  0  0  0  0
   26.1860   20.5980   14.8770 C   0  0  0  0  0  0  0  0  0  0  0  0
   25.5420   21.2560   14.0630 O   0  0  0  0  0  0  0  0  0  0  0  0
   24.6620   17.7310   13.8280 C   0  0  0  0  0  0  0  0  0  0  0  0
   24.0070   17.6350   14.8470 O   0  0  0  0  0  0  0  0  0  0  0  0
   23.4990   14.2410    8.3780 C   0  0  0  0  0  0  0  0  0  0  0  0
   23.4060   13.6560    7.1580 N   0  0  0  0  0  0  0  0  0  0  0  0
   24.0520   14.2350    6.1340 C   0  0  0  0  0  0  0  0  0  0  0  0
   23.9770   13.6640    4.8710 C   0  0  0  0  0  0  0  0  0  0  0  0
   26.8590   11.6300    4.2380 C   0  0  0  0  0  0  0  0  0  0  0  0
   27.0090   11.3570    5.5170 N   0  0  0  0  0  0  0  0  0  0  0  0
   24.7464    9.1845    8.6779 H   0  0  0  0  0  0  0  0  0  0  0  0
   23.8606    9.4192    7.1330 H   0  0  0  0  0  0  0  0  0  0  0  0
   25.4708    8.6230    7.1330 H   0  0  0  0  0  0  0  0  0  0  0  0
   24.8845   11.5279    7.8797 H   0  0  0  0  0  0  0  0  0  0  0  0
   26.5074   10.7112    7.9158 H   0  0  0  0  0  0  0  0  0  0  0  0
   23.7176   11.1062    5.0466 H   0  0  0  0  0  0  0  0  0  0  0  0
   25.8968   15.8324    3.0663 H   0  0  0  0  0  0  0  0  0  0  0  0
   26.0605   16.8953    5.3182 H   0  0  0  0  0  0  0  0  0  0  0  0
   25.4700   16.9015    7.7236 H   0  0  0  0  0  0  0  0  0  0  0  0
   22.4399   15.0260   10.6742 H   0  0  0  0  0  0  0  0  0  0  0  0
   22.5225   15.9874   12.9870 H   0  0  0  0  0  0  0  0  0  0  0  0
   26.1483   17.0567    9.6605 H   0  0  0  0  0  0  0  0  0  0  0  0
   27.3635   17.7467   12.3851 H   0  0  0  0  0  0  0  0  0  0  0  0
   26.5785   19.1639   11.7283 H   0  0  0  0  0  0  0  0  0  0  0  0
   27.5963   19.0167   14.4428 H   0  0  0  0  0  0  0  0  0  0  0  0
   25.2394   18.4805   16.3227 H   0  0  0  0  0  0  0  0  0  0  0  0
   26.5689   17.3349   15.9443 H   0  0  0  0  0  0  0  0  0  0  0  0
   26.9385   18.5732   18.0882 H   0  0  0  0  0  0  0  0  0  0  0  0
   28.2194   18.8976   16.8529 H   0  0  0  0  0  0  0  0  0  0  0  0
   26.8070   22.1984   16.0203 H   0  0  0  0  0  0  0  0  0  0  0  0
   22.9630   13.7643    9.2119 H   0  0  0  0  0  0  0  0  0  0  0  0
   23.3869   12.7458    4.7346 H   0  0  0  0  0  0  0  0  0  0  0  0
   27.6751   11.9185    3.5592 H   0  0  0  0  0  0  0  0  0  0  0  0
  1  2  1  0
  2  3  1  0
  3  4  2  0
  4  5  1  0
  5  6  1  0
  6  7  2  0
  6  8  2  0
  6  9  1  0
  9 10  1  0
 10 11  2  0
 11 12  1  0
 12 13  2  0
 13 14  1  0
 14 15  2  0
 15 16  1  0
 16 17  2  0
 17 18  1  0
 18 19  2  0
 19 20  1  0
 20 21  2  0
 20 22  1  0
 22 23  1  0
 23 24  1  0
 24 25  1  0
 25 26  1  0
 26 27  1  0
 27 28  2  0
 27 29  1  0
 29 30  1  0
 30 31  2  0
 23 32  1  0
 32 33  2  0
 15 34  1  0
 34 35  2  0
 35 36  1  0
 36 37  2  0
  5 38  1  0
 38 39  2  0
 39  3  1  0
 37 10  1  0
 36 13  1  0
 21 16  1  0
 30 24  1  0
 32 19  1  0
  1 40  1  0
  1 41  1  0
  1 42  1  0
  2 43  1  0
  2 44  1  0
  4 45  1  0
 11 46  1  0
 12 47  1  0
 14 48  1  0
 17 49  1  0
 18 50  1  0
 21 51  1  0
 22 52  1  0
 22 53  1  0
 24 54  1  6
 25 55  1  0
 25 56  1  0
 26 57  1  0
 26 58  1  0
 29 59  1  0
 34 60  1  0
 37 61  1  0
 38 62  1  0
M  END
>  <meeko>  (706) 
{"is_sidechain": [true], "free_energy": -11.69, "intermolecular_energy": 0.0, "internal_energy": -11.69, "cluster_size": 13, "cluster_id": 1, "rank_in_cluster": 1}

>  <_RMSD_MCS_to_ref>  (706) 
1.2468510558825996

$$$$
ligand
     RDKit          3D

 48 51  0  0  0  0  0  0  0  0999 V2000
   24.8710    9.6160    7.7820 C   0  0  0  0  0  0  0  0  0  0  0  0
   25.4240   10.9650    7.3490 C   0  0  0  0  0  0  0  0  0  0  0  0
   26.4640   11.4710    8.2830 C   0  0  0  0  0  0  0  0  0  0  0  0
   27.2830   12.5760    8.1550 C   0  0  0  0  0  0  0  0  0  0  0  0
   28.0170   12.5810    9.3060 N   0  0  0  0  0  0  0  0  0  0  0  0
   29.2510   13.6530    9.7160 S   0  0  0  0  0  6  0  0  0  0  0  0
   29.8000   13.0810   10.9350 O   0  0  0  0  0  0  0  0  0  0  0  0
   30.0830   13.7850    8.5330 O   0  0  0  0  0  0  0  0  0  0  0  0
   28.6110   15.0970   10.1060 O   0  0  0  0  0  0  0  0  0  0  0  0
   27.2670   15.3170    9.9390 C   0  0  0  0  0  0  0  0  0  0  0  0
   26.5740   15.7900   11.0420 C   0  0  0  0  0  0  0  0  0  0  0  0
   25.1920   15.9670   10.8770 C   0  0  0  0  0  0  0  0  0  0  0  0
   24.1060   16.4150   11.6820 C   0  0  0  0  0  0  0  0  0  0  0  0
   24.1580   16.8650   13.0810 C   0  0  0  0  0  0  0  0  0  0  0  0
   23.3900   16.4600   13.9490 O   0  0  0  0  0  0  0  0  0  0  0  0
   25.1430   17.7940   13.3240 N   0  0  0  0  0  0  0  0  0  0  0  0
   25.2630   18.4960   14.5870 C   0  0  1  0  0  0  0  0  0  0  0  0
   26.2240   17.7950   15.5400 C   0  0  0  0  0  0  0  0  0  0  0  0
   26.3260   18.5880   16.8340 C   0  0  0  0  0  0  0  0  0  0  0  0
   26.7410   20.0160   16.5710 C   0  0  0  0  0  0  0  0  0  0  0  0
   27.4320   20.6560   17.3580 O   0  0  0  0  0  0  0  0  0  0  0  0
   26.2760   20.5870   15.4130 N   0  0  0  0  0  0  0  0  0  0  0  0
   25.7650   19.9210   14.3250 C   0  0  0  0  0  0  0  0  0  0  0  0
   25.7040   20.4650   13.2240 O   0  0  0  0  0  0  0  0  0  0  0  0
   22.9430   16.3810   10.9960 N   0  0  0  0  0  0  0  0  0  0  0  0
   23.2910   15.9170    9.7830 N   0  0  0  0  0  0  0  0  0  0  0  0
   24.6240   15.6510    9.6490 C   0  0  0  0  0  0  0  0  0  0  0  0
   25.3700   15.1660    8.5880 C   0  0  0  0  0  0  0  0  0  0  0  0
   26.7030   14.9990    8.7570 N   0  0  0  0  0  0  0  0  0  0  0  0
   27.6870   11.4960   10.0530 C   0  0  0  0  0  0  0  0  0  0  0  0
   26.7270   10.8090    9.4700 N   0  0  0  0  0  0  0  0  0  0  0  0
   24.8497    9.5640    8.8806 H   0  0  0  0  0  0  0  0  0  0  0  0
   23.8507    9.4948    7.3893 H   0  0  0  0  0  0  0  0  0  0  0  0
   25.5127    8.8135    7.3893 H   0  0  0  0  0  0  0  0  0  0  0  0
   25.8672   10.8614    6.3476 H   0  0  0  0  0  0  0  0  0  0  0  0
   24.5930   11.6857    7.3461 H   0  0  0  0  0  0  0  0  0  0  0  0
   27.3324   13.2881    7.3181 H   0  0  0  0  0  0  0  0  0  0  0  0
   27.0790   16.0140   11.9932 H   0  0  0  0  0  0  0  0  0  0  0  0
   25.8231   17.9993   12.5782 H   0  0  0  0  0  0  0  0  0  0  0  0
   24.2699   18.5127   15.0598 H   0  0  0  0  0  0  0  0  0  0  0  0
   25.8506   16.7837   15.7586 H   0  0  0  0  0  0  0  0  0  0  0  0
   27.2177   17.7269   15.0732 H   0  0  0  0  0  0  0  0  0  0  0  0
   25.3461   18.5859   17.3338 H   0  0  0  0  0  0  0  0  0  0  0  0
   27.0887   18.1164   17.4711 H   0  0  0  0  0  0  0  0  0  0  0  0
   26.3137   21.6146   15.3536 H   0  0  0  0  0  0  0  0  0  0  0  0
   22.6120   15.7746    9.0217 H   0  0  0  0  0  0  0  0  0  0  0  0
   24.8901   14.9217    7.6288 H   0  0  0  0  0  0  0  0  0  0  0  0
   28.1562   11.2285   11.0113 H   0  0  0  0  0  0  0  0  0  0  0  0
  1  2  1  0
  2  3  1  0
  3  4  2  0
  4  5  1  0
  5  6  1  0
  6  7  2  0
  6  8  2  0
  6  9  1  0
  9 10  1  0
 10 11  2  0
 11 12  1  0
 12 13  1  0
 13 14  1  0
 14 15  2  0
 14 16  1  0
 16 17  1  0
 17 18  1  0
 18 19  1  0
 19 20  1  0
 20 21  2  0
 20 22  1  0
 22 23  1  0
 23 24  2  0
 13 25  2  0
 25 26  1  0
 26 27  1  0
 27 28  1  0
 28 29  2  0
  5 30  1  0
 30 31  2  0
 31  3  1  0
 29 10  1  0
 27 12  2  0
 23 17  1  0
  1 32  1  0
  1 33  1  0
  1 34  1  0
  2 35  1  0
  2 36  1  0
  4 37  1  0
 11 38  1  0
 16 39  1  0
 17 40  1  1
 18 41  1  0
 18 42  1  0
 19 43  1  0
 19 44  1  0
 22 45  1  0
 26 46  1  0
 28 47  1  0
 30 48  1  0
M  END
>  <meeko>  (707) 
{"is_sidechain": [true], "free_energy": -11.69, "intermolecular_energy": 0.0, "internal_energy": -11.69, "cluster_size": 17, "cluster_id": 1, "rank_in_cluster": 1}

>  <_RMSD_MCS_to_ref>  (707) 
0.6588551518437961

$$$$
ligand
     RDKit          3D

 59 63  0  0  0  0  0  0  0  0999 V2000
   24.8540    9.4020    7.6050 C   0  0  0  0  0  0  0  0  0  0  0  0
   25.5230   10.7550    7.4270 C   0  0  0  0  0  0  0  0  0  0  0  0
   26.7500   10.6700    6.5900 C   0  0  0  0  0  0  0  0  0  0  0  0
   27.0000   11.2300    5.3530 C   0  0  0  0  0  0  0  0  0  0  0  0
   28.2650   10.8190    5.0470 N   0  0  0  0  0  0  0  0  0  0  0  0
   29.1970   11.3700    3.7620 S   0  0  0  0  0  6  0  0  0  0  0  0
   30.5670   11.0370    4.0980 O   0  0  0  0  0  0  0  0  0  0  0  0
   28.5490   10.8840    2.5600 O   0  0  0  0  0  0  0  0  0  0  0  0
   29.0050   13.1310    3.8360 C   0  0  0  0  0  0  0  0  0  0  0  0
   29.3190   13.9070    2.7110 C   0  0  0  0  0  0  0  0  0  0  0  0
   29.1730   15.2930    2.7670 C   0  0  0  0  0  0  0  0  0  0  0  0
   28.7250   15.8910    3.9430 C   0  0  0  0  0  0  0  0  0  0  0  0
   28.4280   15.1120    5.0670 C   0  0  0  0  0  0  0  0  0  0  0  0
   28.5690   13.7290    5.0230 C   0  0  0  0  0  0  0  0  0  0  0  0
   27.9930   15.6780    6.2430 O   0  0  0  0  0  0  0  0  0  0  0  0
   27.8670   17.0640    6.2350 C   0  0  0  0  0  0  0  0  0  0  0  0
   27.3980   17.7560    7.4800 C   0  0  0  0  0  0  0  0  0  0  0  0
   27.2750   18.9750    7.5150 O   0  0  0  0  0  0  0  0  0  0  0  0
   27.1410   16.8630    8.5010 N   0  0  0  0  0  0  0  0  0  0  0  0
   26.6950   17.1490    9.8070 C   0  0  0  0  0  0  0  0  0  0  0  0
   27.3720   18.1540   10.5080 C   0  0  0  0  0  0  0  0  0  0  0  0
   26.9940   18.5010   11.8090 C   0  0  0  0  0  0  0  0  0  0  0  0
   25.9200   17.8550   12.4360 C   0  0  0  0  0  0  0  0  0  0  0  0
   25.5010   18.1880   13.8570 C   0  0  1  0  0  0  0  0  0  0  0  0
   26.3030   17.3420   14.8520 C   0  0  0  0  0  0  0  0  0  0  0  0
   25.8350   17.6280   16.2690 C   0  0  0  0  0  0  0  0  0  0  0  0
   25.9520   19.0960   16.5910 C   0  0  0  0  0  0  0  0  0  0  0  0
   26.0880   19.5070   17.7400 O   0  0  0  0  0  0  0  0  0  0  0  0
   25.8330   19.9650   15.5370 N   0  0  0  0  0  0  0  0  0  0  0  0
   25.6200   19.6720   14.2090 C   0  0  0  0  0  0  0  0  0  0  0  0
   25.4850   20.5870   13.3990 O   0  0  0  0  0  0  0  0  0  0  0  0
   25.2480   16.8460   11.7300 C   0  0  0  0  0  0  0  0  0  0  0  0
   25.6320   16.4990   10.4290 C   0  0  0  0  0  0  0  0  0  0  0  0
   28.1540   17.7960    5.1500 C   0  0  0  0  0  0  0  0  0  0  0  0
   28.5930   17.2590    3.9600 O   0  0  0  0  0  0  0  0  0  0  0  0
   28.7570   10.0880    6.0800 C   0  0  0  0  0  0  0  0  0  0  0  0
   27.8570    9.9710    7.0330 N   0  0  0  0  0  0  0  0  0  0  0  0
   24.7464    9.1845    8.6779 H   0  0  0  0  0  0  0  0  0  0  0  0
   23.8606    9.4192    7.1330 H   0  0  0  0  0  0  0  0  0  0  0  0
   25.4708    8.6230    7.1330 H   0  0  0  0  0  0  0  0  0  0  0  0
   24.8116   11.4410    6.9440 H   0  0  0  0  0  0  0  0  0  0  0  0
   25.8179   11.1192    8.4222 H   0  0  0  0  0  0  0  0  0  0  0  0
   26.3317   11.8633    4.7511 H   0  0  0  0  0  0  0  0  0  0  0  0
   29.6784   13.4254    1.7896 H   0  0  0  0  0  0  0  0  0  0  0  0
   29.4101   15.9103    1.8879 H   0  0  0  0  0  0  0  0  0  0  0  0
   28.3414   13.1155    5.9072 H   0  0  0  0  0  0  0  0  0  0  0  0
   27.2935   15.8682    8.2820 H   0  0  0  0  0  0  0  0  0  0  0  0
   28.2125   18.6777   10.0292 H   0  0  0  0  0  0  0  0  0  0  0  0
   27.5447   19.2881   12.3450 H   0  0  0  0  0  0  0  0  0  0  0  0
   24.4303   17.9453   13.9260 H   0  0  0  0  0  0  0  0  0  0  0  0
   26.1542   16.2756   14.6270 H   0  0  0  0  0  0  0  0  0  0  0  0
   27.3700   17.5951   14.7650 H   0  0  0  0  0  0  0  0  0  0  0  0
   24.7837   17.3204   16.3695 H   0  0  0  0  0  0  0  0  0  0  0  0
   26.4701   17.0643   16.9682 H   0  0  0  0  0  0  0  0  0  0  0  0
   25.9133   20.9654   15.7687 H   0  0  0  0  0  0  0  0  0  0  0  0
   24.4071   16.3198   12.2055 H   0  0  0  0  0  0  0  0  0  0  0  0
   25.0893   15.7061    9.8935 H   0  0  0  0  0  0  0  0  0  0  0  0
   28.0321   18.8874    5.2132 H   0  0  0  0  0  0  0  0  0  0  0  0
   29.7672    9.6540    6.1154 H   0  0  0  0  0  0  0  0  0  0  0  0
  1  2  1  0
  2  3  1  0
  3  4  2  0
  4  5  1  0
  5  6  1  0
  6  7  2  0
  6  8  2  0
  6  9  1  0
  9 10  2  0
 10 11  1  0
 11 12  2  0
 12 13  1  0
 13 14  2  0
 13 15  1  0
 15 16  1  0
 16 17  1  0
 17 18  2  0
 17 19  1  0
 19 20  1  0
 20 21  2  0
 21 22  1  0
 22 23  2  0
 23 24  1  0
 24 25  1  0
 25 26  1  0
 26 27  1  0
 27 28  2  0
 27 29  1  0
 29 30  1  0
 30 31  2  0
 23 32  1  0
 32 33  2  0
 16 34  2  0
 34 35  1  0
  5 36  1  0
 36 37  2  0
 37  3  1  0
 14  9  1  0
 33 20  1  0
 35 12  1  0
 30 24  1  0
  1 38  1  0
  1 39  1  0
  1 40  1  0
  2 41  1  0
  2 42  1  0
  4 43  1  0
 10 44  1  0
 11 45  1  0
 14 46  1  0
 19 47  1  0
 21 48  1  0
 22 49  1  0
 24 50  1  6
 25 51  1  0
 25 52  1  0
 26 53  1  0
 26 54  1  0
 29 55  1  0
 32 56  1  0
 33 57  1  0
 34 58  1  0
 36 59  1  0
M  END
>  <meeko>  (708) 
{"is_sidechain": [true], "free_energy": -11.68, "intermolecular_energy": 0.0, "internal_energy": -11.68, "cluster_size": 20, "cluster_id": 1, "rank_in_cluster": 1}

>  <_RMSD_MCS_to_ref>  (708) 
1.129466909652513

$$$$
ligand
     RDKit          3D

 63 67  0  0  0  0  0  0  0  0999 V2000
   24.8540    9.4020    7.6050 C   0  0  0  0  0  0  0  0  0  0  0  0
   25.5230   10.7550    7.4270 C   0  0  0  0  0  0  0  0  0  0  0  0
   24.9490   11.5210    6.2870 C   0  0  0  0  0  0  0  0  0  0  0  0
   25.6030   12.2330    5.3020 C   0  0  0  0  0  0  0  0  0  0  0  0
   24.5970   12.7130    4.5120 N   0  0  0  0  0  0  0  0  0  0  0  0
   24.7740   13.8060    3.2490 S   0  0  0  0  0  6  0  0  0  0  0  0
   26.0340   13.4450    2.6270 O   0  0  0  0  0  0  0  0  0  0  0  0
   23.5150   13.7800    2.5290 O   0  0  0  0  0  0  0  0  0  0  0  0
   24.9560   15.4320    3.9590 C   0  0  0  0  0  0  0  0  0  0  0  0
   23.9810   16.4110    3.7320 C   0  0  0  0  0  0  0  0  0  0  0  0
   24.1230   17.6750    4.2990 C   0  0  0  0  0  0  0  0  0  0  0  0
   25.2230   17.9640    5.1030 C   0  0  0  0  0  0  0  0  0  0  0  0
   26.2060   16.9950    5.3620 C   0  0  0  0  0  0  0  0  0  0  0  0
   26.0950   15.7250    4.7470 C   0  0  0  0  0  0  0  0  0  0  0  0
   27.1890   14.7080    4.9920 C   0  0  0  0  0  0  0  0  0  0  0  0
   28.4760   15.3820    5.4490 C   0  0  0  0  0  0  0  0  0  0  0  0
   28.1950   16.1840    6.5920 O   0  0  0  0  0  0  0  0  0  0  0  0
   27.4100   17.3440    6.2390 C   0  0  2  0  0  0  0  0  0  0  0  0
   27.0050   18.0500    7.5600 C   0  0  0  0  0  0  0  0  0  0  0  0
   26.7600   19.2540    7.5980 O   0  0  0  0  0  0  0  0  0  0  0  0
   26.9410   17.1680    8.6270 N   0  0  0  0  0  0  0  0  0  0  0  0
   26.5500   17.4240    9.9520 C   0  0  0  0  0  0  0  0  0  0  0  0
   25.4910   16.7780   10.5880 C   0  0  0  0  0  0  0  0  0  0  0  0
   25.1690   17.0830   11.9170 C   0  0  0  0  0  0  0  0  0  0  0  0
   25.9010   18.0380   12.6350 C   0  0  0  0  0  0  0  0  0  0  0  0
   25.5490   18.3970   14.0690 C   0  0  1  0  0  0  0  0  0  0  0  0
   26.4070   17.5890   15.0490 C   0  0  0  0  0  0  0  0  0  0  0  0
   26.0120   17.9270   16.4780 C   0  0  0  0  0  0  0  0  0  0  0  0
   26.1430   19.4070   16.7390 C   0  0  0  0  0  0  0  0  0  0  0  0
   26.3010   19.8630   17.8680 O   0  0  0  0  0  0  0  0  0  0  0  0
   26.0020   20.2340   15.6540 N   0  0  0  0  0  0  0  0  0  0  0  0
   25.6640   19.8920   14.3640 C   0  0  0  0  0  0  0  0  0  0  0  0
   25.4080   20.7760   13.5490 O   0  0  0  0  0  0  0  0  0  0  0  0
   26.9650   18.6820   11.9910 C   0  0  0  0  0  0  0  0  0  0  0  0
   27.2860   18.3750   10.6650 C   0  0  0  0  0  0  0  0  0  0  0  0
   23.4020   12.3220    5.0240 C   0  0  0  0  0  0  0  0  0  0  0  0
   23.5800   11.5980    6.1090 N   0  0  0  0  0  0  0  0  0  0  0  0
   24.7464    9.1845    8.6779 H   0  0  0  0  0  0  0  0  0  0  0  0
   23.8606    9.4192    7.1330 H   0  0  0  0  0  0  0  0  0  0  0  0
   25.4708    8.6230    7.1330 H   0  0  0  0  0  0  0  0  0  0  0  0
   25.3903   11.3398    8.3492 H   0  0  0  0  0  0  0  0  0  0  0  0
   26.5878   10.5795    7.2137 H   0  0  0  0  0  0  0  0  0  0  0  0
   26.6863   12.3803    5.1808 H   0  0  0  0  0  0  0  0  0  0  0  0
   23.1050   16.1822    3.1073 H   0  0  0  0  0  0  0  0  0  0  0  0
   23.3635   18.4482    4.1112 H   0  0  0  0  0  0  0  0  0  0  0  0
   25.3234   18.9675    5.5422 H   0  0  0  0  0  0  0  0  0  0  0  0
   26.8570   14.0043    5.7695 H   0  0  0  0  0  0  0  0  0  0  0  0
   27.3894   14.1783    4.0490 H   0  0  0  0  0  0  0  0  0  0  0  0
   29.2217   14.6164    5.7092 H   0  0  0  0  0  0  0  0  0  0  0  0
   28.8748   16.0119    4.6402 H   0  0  0  0  0  0  0  0  0  0  0  0
   28.0086   18.0276    5.6191 H   0  0  0  0  0  0  0  0  0  0  0  0
   27.2163   16.1970    8.4217 H   0  0  0  0  0  0  0  0  0  0  0  0
   24.9044   16.0239   10.0429 H   0  0  0  0  0  0  0  0  0  0  0  0
   24.3294   16.5653   12.4038 H   0  0  0  0  0  0  0  0  0  0  0  0
   24.4895   18.1343   14.2050 H   0  0  0  0  0  0  0  0  0  0  0  0
   26.2510   16.5147   14.8712 H   0  0  0  0  0  0  0  0  0  0  0  0
   27.4671   17.8395   14.8960 H   0  0  0  0  0  0  0  0  0  0  0  0
   24.9678   17.6234   16.6440 H   0  0  0  0  0  0  0  0  0  0  0  0
   26.6832   17.3893   17.1638 H   0  0  0  0  0  0  0  0  0  0  0  0
   26.1699   21.2356   15.8257 H   0  0  0  0  0  0  0  0  0  0  0  0
   27.5538   19.4364   12.5334 H   0  0  0  0  0  0  0  0  0  0  0  0
   28.1278   18.8880   10.1770 H   0  0  0  0  0  0  0  0  0  0  0  0
   22.4222   12.5748    4.5926 H   0  0  0  0  0  0  0  0  0  0  0  0
  1  2  1  0
  2  3  1  0
  3  4  2  0
  4  5  1  0
  5  6  1  0
  6  7  2  0
  6  8  2  0
  6  9  1  0
  9 10  2  0
 10 11  1  0
 11 12  2  0
 12 13  1  0
 13 14  2  0
 14 15  1  0
 15 16  1  0
 16 17  1  0
 17 18  1  0
 18 19  1  0
 19 20  2  0
 19 21  1  0
 21 22  1  0
 22 23  2  0
 23 24  1  0
 24 25  2  0
 25 26  1  0
 26 27  1  0
 27 28  1  0
 28 29  1  0
 29 30  2  0
 29 31  1  0
 31 32  1  0
 32 33  2  0
 25 34  1  0
 34 35  2  0
  5 36  1  0
 36 37  2  0
 37  3  1  0
 14  9  1  0
 35 22  1  0
 18 13  1  0
 32 26  1  0
  1 38  1  0
  1 39  1  0
  1 40  1  0
  2 41  1  0
  2 42  1  0
  4 43  1  0
 10 44  1  0
 11 45  1  0
 12 46  1  0
 15 47  1  0
 15 48  1  0
 16 49  1  0
 16 50  1  0
 18 51  1  6
 21 52  1  0
 23 53  1  0
 24 54  1  0
 26 55  1  1
 27 56  1  0
 27 57  1  0
 28 58  1  0
 28 59  1  0
 31 60  1  0
 34 61  1  0
 35 62  1  0
 36 63  1  0
M  END
>  <meeko>  (709) 
{"is_sidechain": [true], "free_energy": -11.68, "intermolecular_energy": 0.0, "internal_energy": -11.68, "cluster_size": 20, "cluster_id": 1, "rank_in_cluster": 1}

>  <_RMSD_MCS_to_ref>  (709) 
0.9219394638478162

$$$$
ligand
     RDKit          3D

 53 57  0  0  0  0  0  0  0  0999 V2000
   24.8540    9.4020    7.6050 C   0  0  0  0  0  0  0  0  0  0  0  0
   25.5230   10.7550    7.4270 C   0  0  0  0  0  0  0  0  0  0  0  0
   27.0050   10.6690    7.5350 C   0  0  0  0  0  0  0  0  0  0  0  0
   27.9420   11.6810    7.4640 C   0  0  0  0  0  0  0  0  0  0  0  0
   29.1350   11.0460    7.6630 N   0  0  0  0  0  0  0  0  0  0  0  0
   30.6610   11.7240    7.4270 S   0  0  0  0  0  6  0  0  0  0  0  0
   31.3370   11.5650    8.7020 O   0  0  0  0  0  0  0  0  0  0  0  0
   31.1560   11.0980    6.2160 O   0  0  0  0  0  0  0  0  0  0  0  0
   30.4000   13.3160    7.1570 O   0  0  0  0  0  0  0  0  0  0  0  0
   30.1560   14.1450    8.2290 C   0  0  0  0  0  0  0  0  0  0  0  0
   31.1190   14.3090    9.2140 C   0  0  0  0  0  0  0  0  0  0  0  0
   30.8050   15.1330   10.2670 C   0  0  0  0  0  0  0  0  0  0  0  0
   29.6200   15.7640   10.3930 N   0  0  0  0  0  0  0  0  0  0  0  0
   28.6540   15.5960    9.4530 C   0  0  0  0  0  0  0  0  0  0  0  0
   27.3960   16.2320    9.5450 C   0  0  0  0  0  0  0  0  0  0  0  0
   27.0350   17.1060   10.6560 C   0  0  0  0  0  0  0  0  0  0  0  0
   25.9530   17.0030   11.5010 C   0  0  0  0  0  0  0  0  0  0  0  0
   26.0770   18.0730   12.3360 N   0  0  0  0  0  0  0  0  0  0  0  0
   25.2380   18.4120   13.4680 C   0  0  1  0  0  0  0  0  0  0  0  0
   25.6590   17.7410   14.7760 C   0  0  0  0  0  0  0  0  0  0  0  0
   26.8770   18.4030   15.4050 C   0  0  0  0  0  0  0  0  0  0  0  0
   26.6950   19.8950   15.5340 C   0  0  0  0  0  0  0  0  0  0  0  0
   27.2340   20.5480   16.4240 O   0  0  0  0  0  0  0  0  0  0  0  0
   25.9100   20.5050   14.5890 N   0  0  0  0  0  0  0  0  0  0  0  0
   25.1290   19.9140   13.6250 C   0  0  0  0  0  0  0  0  0  0  0  0
   24.3740   20.5950   12.9320 O   0  0  0  0  0  0  0  0  0  0  0  0
   27.1530   18.8140   12.0250 N   0  0  0  0  0  0  0  0  0  0  0  0
   27.7470   18.2340   10.9900 N   0  0  0  0  0  0  0  0  0  0  0  0
   26.4240   16.0500    8.5420 C   0  0  0  0  0  0  0  0  0  0  0  0
   26.6720   15.2320    7.4490 C   0  0  0  0  0  0  0  0  0  0  0  0
   27.8990   14.5930    7.3450 C   0  0  0  0  0  0  0  0  0  0  0  0
   28.8970   14.7690    8.3290 C   0  0  0  0  0  0  0  0  0  0  0  0
   28.9170    9.7100    7.7630 C   0  0  0  0  0  0  0  0  0  0  0  0
   27.6280    9.4490    7.7120 N   0  0  0  0  0  0  0  0  0  0  0  0
   24.7464    9.1845    8.6779 H   0  0  0  0  0  0  0  0  0  0  0  0
   23.8606    9.4192    7.1330 H   0  0  0  0  0  0  0  0  0  0  0  0
   25.4708    8.6230    7.1330 H   0  0  0  0  0  0  0  0  0  0  0  0
   25.2627   11.1508    6.4342 H   0  0  0  0  0  0  0  0  0  0  0  0
   25.1642   11.4168    8.2291 H   0  0  0  0  0  0  0  0  0  0  0  0
   27.7677   12.7527    7.2876 H   0  0  0  0  0  0  0  0  0  0  0  0
   32.0927   13.8007    9.1542 H   0  0  0  0  0  0  0  0  0  0  0  0
   31.5617   15.2866   11.0505 H   0  0  0  0  0  0  0  0  0  0  0  0
   25.1676   16.2328   11.5020 H   0  0  0  0  0  0  0  0  0  0  0  0
   24.2414   18.0052   13.2413 H   0  0  0  0  0  0  0  0  0  0  0  0
   24.8211   17.7963   15.4865 H   0  0  0  0  0  0  0  0  0  0  0  0
   25.9262   16.6990   14.5462 H   0  0  0  0  0  0  0  0  0  0  0  0
   27.0385   17.9755   16.4056 H   0  0  0  0  0  0  0  0  0  0  0  0
   27.7436   18.2177   14.7534 H   0  0  0  0  0  0  0  0  0  0  0  0
   25.9053   21.5349   14.6037 H   0  0  0  0  0  0  0  0  0  0  0  0
   25.4549   16.5635    8.6264 H   0  0  0  0  0  0  0  0  0  0  0  0
   25.9044   15.0918    6.6737 H   0  0  0  0  0  0  0  0  0  0  0  0
   28.0978   13.9392    6.4830 H   0  0  0  0  0  0  0  0  0  0  0  0
   29.7067    8.9520    7.8714 H   0  0  0  0  0  0  0  0  0  0  0  0
  1  2  1  0
  2  3  1  0
  3  4  2  0
  4  5  1  0
  5  6  1  0
  6  7  2  0
  6  8  2  0
  6  9  1  0
  9 10  1  0
 10 11  2  0
 11 12  1  0
 12 13  2  0
 13 14  1  0
 14 15  2  0
 15 16  1  0
 16 17  2  0
 17 18  1  0
 18 19  1  0
 19 20  1  0
 20 21  1  0
 21 22  1  0
 22 23  2  0
 22 24  1  0
 24 25  1  0
 25 26  2  0
 18 27  1  0
 27 28  2  0
 15 29  1  0
 29 30  2  0
 30 31  1  0
 31 32  2  0
  5 33  1  0
 33 34  2  0
 34  3  1  0
 32 10  1  0
 32 14  1  0
 28 16  1  0
 25 19  1  0
  1 35  1  0
  1 36  1  0
  1 37  1  0
  2 38  1  0
  2 39  1  0
  4 40  1  0
 11 41  1  0
 12 42  1  0
 17 43  1  0
 19 44  1  6
 20 45  1  0
 20 46  1  0
 21 47  1  0
 21 48  1  0
 24 49  1  0
 29 50  1  0
 30 51  1  0
 31 52  1  0
 33 53  1  0
M  END
>  <meeko>  (710) 
{"is_sidechain": [true], "free_energy": -11.68, "intermolecular_energy": 0.0, "internal_energy": -11.68, "cluster_size": 20, "cluster_id": 1, "rank_in_cluster": 1}

>  <_RMSD_MCS_to_ref>  (710) 
1.073812263749012

$$$$
ligand
     RDKit          3D

 62 67  0  0  0  0  0  0  0  0999 V2000
   24.8710    9.6160    7.7820 C   0  0  0  0  0  0  0  0  0  0  0  0
   25.4240   10.9650    7.3490 C   0  0  0  0  0  0  0  0  0  0  0  0
   26.6230   11.3590    8.1380 C   0  0  0  0  0  0  0  0  0  0  0  0
   27.8390   11.8380    7.6930 C   0  0  0  0  0  0  0  0  0  0  0  0
   28.5750   11.9960    8.8320 N   0  0  0  0  0  0  0  0  0  0  0  0
   30.0610   12.7840    8.9400 S   0  0  0  0  0  6  0  0  0  0  0  0
   30.8530   12.2340    7.8540 O   0  0  0  0  0  0  0  0  0  0  0  0
   30.4640   12.6260   10.3250 O   0  0  0  0  0  0  0  0  0  0  0  0
   29.7520   14.3610    8.6520 O   0  0  0  0  0  0  0  0  0  0  0  0
   28.5260   14.7790    8.2130 C   0  0  0  0  0  0  0  0  0  0  0  0
   27.3740   14.8460    9.0040 C   0  0  0  0  0  0  0  0  0  0  0  0
   26.1540   15.3510    8.4920 C   0  0  0  0  0  0  0  0  0  0  0  0
   24.9780   15.4800    9.3610 C   0  0  0  0  0  0  0  0  0  0  0  0
   23.7060   15.0470    8.9340 C   0  0  0  0  0  0  0  0  0  0  0  0
   22.5630   15.1730    9.7490 C   0  0  0  0  0  0  0  0  0  0  0  0
   22.6600   15.7410   11.0180 C   0  0  0  0  0  0  0  0  0  0  0  0
   23.9100   16.1610   11.4280 C   0  0  0  0  0  0  0  0  0  0  0  0
   25.0520   16.0410   10.6330 C   0  0  0  0  0  0  0  0  0  0  0  0
   26.2250   16.6260   11.3560 C   0  0  0  0  0  0  0  0  0  0  0  0
   25.6630   16.9830   12.6520 N   0  0  0  0  0  0  0  0  0  0  0  0
   26.3710   17.7950   13.6330 C   0  0  1  0  0  0  0  0  0  0  0  0
   25.8850   19.2420   13.6500 C   0  0  0  0  0  0  0  0  0  0  0  0
   26.7240   20.0460   14.6310 C   0  0  0  0  0  0  0  0  0  0  0  0
   26.6930   19.4280   16.0080 C   0  0  0  0  0  0  0  0  0  0  0  0
   26.7110   20.1030   17.0330 O   0  0  0  0  0  0  0  0  0  0  0  0
   26.6660   18.0580   16.0650 N   0  0  0  0  0  0  0  0  0  0  0  0
   26.2640   17.2140   15.0530 C   0  0  0  0  0  0  0  0  0  0  0  0
   25.8530   16.0860   15.3160 O   0  0  0  0  0  0  0  0  0  0  0  0
   24.2910   16.7980   12.6950 C   0  0  0  0  0  0  0  0  0  0  0  0
   23.5230   17.0900   13.5910 O   0  0  0  0  0  0  0  0  0  0  0  0
   26.0950   15.7440    7.1460 C   0  0  0  0  0  0  0  0  0  0  0  0
   27.2300   15.6210    6.3710 C   0  0  0  0  0  0  0  0  0  0  0  0
   28.4260   15.1500    6.8860 C   0  0  0  0  0  0  0  0  0  0  0  0
   29.4650   15.2220    5.8330 C   0  0  0  0  0  0  0  0  0  0  0  0
   28.5650   15.4230    4.6140 C   0  0  0  0  0  0  0  0  0  0  0  0
   27.3000   15.9760    5.0490 O   0  0  0  0  0  0  0  0  0  0  0  0
   27.7990   11.7060    9.9060 C   0  0  0  0  0  0  0  0  0  0  0  0
   26.6110   11.2910    9.5180 N   0  0  0  0  0  0  0  0  0  0  0  0
   24.8497    9.5640    8.8806 H   0  0  0  0  0  0  0  0  0  0  0  0
   23.8507    9.4948    7.3893 H   0  0  0  0  0  0  0  0  0  0  0  0
   25.5127    8.8135    7.3893 H   0  0  0  0  0  0  0  0  0  0  0  0
   25.7016   10.9097    6.2860 H   0  0  0  0  0  0  0  0  0  0  0  0
   24.6434   11.7211    7.5194 H   0  0  0  0  0  0  0  0  0  0  0  0
   28.1451   12.0451    6.6569 H   0  0  0  0  0  0  0  0  0  0  0  0
   27.4168   14.4987   10.0469 H   0  0  0  0  0  0  0  0  0  0  0  0
   23.6026   14.5976    7.9353 H   0  0  0  0  0  0  0  0  0  0  0  0
   21.5880   14.8207    9.3811 H   0  0  0  0  0  0  0  0  0  0  0  0
   21.7778   15.8502   11.6659 H   0  0  0  0  0  0  0  0  0  0  0  0
   27.0320   15.8864   11.4647 H   0  0  0  0  0  0  0  0  0  0  0  0
   26.6790   17.4785   10.8295 H   0  0  0  0  0  0  0  0  0  0  0  0
   27.4248   17.7795   13.3181 H   0  0  0  0  0  0  0  0  0  0  0  0
   25.9834   19.6739   12.6431 H   0  0  0  0  0  0  0  0  0  0  0  0
   24.8298   19.2712   13.9594 H   0  0  0  0  0  0  0  0  0  0  0  0
   27.7640   20.0755   14.2740 H   0  0  0  0  0  0  0  0  0  0  0  0
   26.3078   21.0622   14.6951 H   0  0  0  0  0  0  0  0  0  0  0  0
   26.9744   17.6201   16.9448 H   0  0  0  0  0  0  0  0  0  0  0  0
   25.1632   16.1419    6.7177 H   0  0  0  0  0  0  0  0  0  0  0  0
   30.1472   16.0714    5.9854 H   0  0  0  0  0  0  0  0  0  0  0  0
   30.1428   14.3572    5.7804 H   0  0  0  0  0  0  0  0  0  0  0  0
   29.0478   16.1160    3.9093 H   0  0  0  0  0  0  0  0  0  0  0  0
   28.3966   14.4583    4.1130 H   0  0  0  0  0  0  0  0  0  0  0  0
   28.1175   11.8038   10.9543 H   0  0  0  0  0  0  0  0  0  0  0  0
  1  2  1  0
  2  3  1  0
  3  4  2  0
  4  5  1  0
  5  6  1  0
  6  7  2  0
  6  8  2  0
  6  9  1  0
  9 10  1  0
 10 11  2  0
 11 12  1  0
 12 13  1  0
 13 14  2  0
 14 15  1  0
 15 16  2  0
 16 17  1  0
 17 18  2  0
 18 19  1  0
 19 20  1  0
 20 21  1  0
 21 22  1  0
 22 23  1  0
 23 24  1  0
 24 25  2  0
 24 26  1  0
 26 27  1  0
 27 28  2  0
 20 29  1  0
 29 30  2  0
 12 31  2  0
 31 32  1  0
 32 33  2  0
 33 34  1  0
 34 35  1  0
 35 36  1  0
  5 37  1  0
 37 38  2  0
 38  3  1  0
 33 10  1  0
 18 13  1  0
 27 21  1  0
 36 32  1  0
 29 17  1  0
  1 39  1  0
  1 40  1  0
  1 41  1  0
  2 42  1  0
  2 43  1  0
  4 44  1  0
 11 45  1  0
 14 46  1  0
 15 47  1  0
 16 48  1  0
 19 49  1  0
 19 50  1  0
 21 51  1  6
 22 52  1  0
 22 53  1  0
 23 54  1  0
 23 55  1  0
 26 56  1  0
 31 57  1  0
 34 58  1  0
 34 59  1  0
 35 60  1  0
 35 61  1  0
 37 62  1  0
M  END
>  <meeko>  (711) 
{"is_sidechain": [true], "free_energy": -11.68, "intermolecular_energy": 0.0, "internal_energy": -11.68, "cluster_size": 8, "cluster_id": 2, "rank_in_cluster": 1}

>  <_RMSD_MCS_to_ref>  (711) 
1.9653588448140689

$$$$
ligand
     RDKit          3D

 48 51  0  0  0  0  0  0  0  0999 V2000
   24.8710    9.6160    7.7820 C   0  0  0  0  0  0  0  0  0  0  0  0
   25.4240   10.9650    7.3490 C   0  0  0  0  0  0  0  0  0  0  0  0
   26.8020   11.1980    7.8620 C   0  0  0  0  0  0  0  0  0  0  0  0
   27.2130   11.9770    8.9260 C   0  0  0  0  0  0  0  0  0  0  0  0
   28.5660   11.7980    8.9690 N   0  0  0  0  0  0  0  0  0  0  0  0
   29.6470   12.6900    9.9040 S   0  0  0  0  0  6  0  0  0  0  0  0
   29.2600   12.4220   11.2760 O   0  0  0  0  0  0  0  0  0  0  0  0
   30.9590   12.3360    9.3970 O   0  0  0  0  0  0  0  0  0  0  0  0
   29.3500   14.2580    9.5630 O   0  0  0  0  0  0  0  0  0  0  0  0
   28.0880   14.7980    9.4850 C   0  0  0  0  0  0  0  0  0  0  0  0
   27.5070   14.7420    8.1500 C   0  0  0  0  0  0  0  0  0  0  0  0
   26.2760   15.2260    7.8920 C   0  0  0  0  0  0  0  0  0  0  0  0
   25.5190   15.8060    8.9430 C   0  0  0  0  0  0  0  0  0  0  0  0
   24.3210   16.3450    8.9780 N   0  0  0  0  0  0  0  0  0  0  0  0
   24.0820   16.7510   10.2670 N   0  0  0  0  0  0  0  0  0  0  0  0
   25.1430   16.4550   11.0020 C   0  0  0  0  0  0  0  0  0  0  0  0
   25.2330   16.7460   12.4130 C   0  0  0  0  0  0  0  0  0  0  0  0
   25.2010   15.8960   13.3000 O   0  0  0  0  0  0  0  0  0  0  0  0
   25.3520   18.0880   12.7040 N   0  0  0  0  0  0  0  0  0  0  0  0
   25.3280   18.6000   14.0620 C   0  0  1  0  0  0  0  0  0  0  0  0
   26.3360   17.8870   14.9580 C   0  0  0  0  0  0  0  0  0  0  0  0
   26.2770   18.4760   16.3590 C   0  0  0  0  0  0  0  0  0  0  0  0
   26.5050   19.9700   16.3360 C   0  0  0  0  0  0  0  0  0  0  0  0
   27.0680   20.5630   17.2510 O   0  0  0  0  0  0  0  0  0  0  0  0
   26.0170   20.6480   15.2480 N   0  0  0  0  0  0  0  0  0  0  0  0
   25.6460   20.0980   14.0450 C   0  0  0  0  0  0  0  0  0  0  0  0
   25.5590   20.7910   13.0320 O   0  0  0  0  0  0  0  0  0  0  0  0
   26.0920   15.8490   10.2070 N   0  0  0  0  0  0  0  0  0  0  0  0
   27.3680   15.3490   10.4840 C   0  0  0  0  0  0  0  0  0  0  0  0
   28.9440   11.0170    7.9240 C   0  0  0  0  0  0  0  0  0  0  0  0
   27.8900   10.6160    7.2440 N   0  0  0  0  0  0  0  0  0  0  0  0
   24.8497    9.5640    8.8806 H   0  0  0  0  0  0  0  0  0  0  0  0
   23.8507    9.4948    7.3893 H   0  0  0  0  0  0  0  0  0  0  0  0
   25.5127    8.8135    7.3893 H   0  0  0  0  0  0  0  0  0  0  0  0
   25.4438   11.0036    6.2499 H   0  0  0  0  0  0  0  0  0  0  0  0
   24.7717   11.7470    7.7650 H   0  0  0  0  0  0  0  0  0  0  0  0
   26.5923   12.5993    9.5874 H   0  0  0  0  0  0  0  0  0  0  0  0
   28.0884   14.2929    7.3313 H   0  0  0  0  0  0  0  0  0  0  0  0
   25.8612   15.1719    6.8747 H   0  0  0  0  0  0  0  0  0  0  0  0
   25.4624   18.7544   11.9264 H   0  0  0  0  0  0  0  0  0  0  0  0
   24.3225   18.4204   14.4703 H   0  0  0  0  0  0  0  0  0  0  0  0
   26.0940   16.8148   15.0008 H   0  0  0  0  0  0  0  0  0  0  0  0
   27.3480   18.0192   14.5477 H   0  0  0  0  0  0  0  0  0  0  0  0
   25.2870   18.2711   16.7926 H   0  0  0  0  0  0  0  0  0  0  0  0
   27.0701   18.0128   16.9644 H   0  0  0  0  0  0  0  0  0  0  0  0
   25.9192   21.6690   15.3421 H   0  0  0  0  0  0  0  0  0  0  0  0
   27.7793   15.4042   11.5027 H   0  0  0  0  0  0  0  0  0  0  0  0
   29.9844   10.7561    7.6800 H   0  0  0  0  0  0  0  0  0  0  0  0
  1  2  1  0
  2  3  1  0
  3  4  2  0
  4  5  1  0
  5  6  1  0
  6  7  2  0
  6  8  2  0
  6  9  1  0
  9 10  1  0
 10 11  1  0
 11 12  2  0
 12 13  1  0
 13 14  2  0
 14 15  1  0
 15 16  2  0
 16 17  1  0
 17 18  2  0
 17 19  1  0
 19 20  1  0
 20 21  1  0
 21 22  1  0
 22 23  1  0
 23 24  2  0
 23 25  1  0
 25 26  1  0
 26 27  2  0
 16 28  1  0
 28 29  1  0
  5 30  1  0
 30 31  2  0
 31  3  1  0
 29 10  2  0
 28 13  1  0
 26 20  1  0
  1 32  1  0
  1 33  1  0
  1 34  1  0
  2 35  1  0
  2 36  1  0
  4 37  1  0
 11 38  1  0
 12 39  1  0
 19 40  1  0
 20 41  1  1
 21 42  1  0
 21 43  1  0
 22 44  1  0
 22 45  1  0
 25 46  1  0
 29 47  1  0
 30 48  1  0
M  END
>  <meeko>  (712) 
{"is_sidechain": [true], "free_energy": -11.68, "intermolecular_energy": 0.0, "internal_energy": -11.68, "cluster_size": 18, "cluster_id": 1, "rank_in_cluster": 1}

>  <_RMSD_MCS_to_ref>  (712) 
0.7907572320251014

$$$$
ligand
     RDKit          3D

 55 59  0  0  0  0  0  0  0  0999 V2000
   24.8540    9.4020    7.6050 C   0  0  0  0  0  0  0  0  0  0  0  0
   25.5230   10.7550    7.4270 C   0  0  0  0  0  0  0  0  0  0  0  0
   25.1420   11.4150    6.1480 C   0  0  0  0  0  0  0  0  0  0  0  0
   24.0890   12.2730    5.8970 C   0  0  0  0  0  0  0  0  0  0  0  0
   24.1810   12.5310    4.5600 N   0  0  0  0  0  0  0  0  0  0  0  0
   23.2260   13.6060    3.6770 S   0  0  0  0  0  6  0  0  0  0  0  0
   21.8730   13.4110    4.1690 O   0  0  0  0  0  0  0  0  0  0  0  0
   23.5600   13.3270    2.2920 O   0  0  0  0  0  0  0  0  0  0  0  0
   23.6870   15.1290    4.0100 O   0  0  0  0  0  0  0  0  0  0  0  0
   24.7720   15.2650    4.8180 C   0  0  0  0  0  0  0  0  0  0  0  0
   26.0560   15.0990    4.3310 C   0  0  0  0  0  0  0  0  0  0  0  0
   27.1380   15.2260    5.1270 N   0  0  0  0  0  0  0  0  0  0  0  0
   26.8730   15.5020    6.4320 C   0  0  0  0  0  0  0  0  0  0  0  0
   25.5810   15.6500    6.9420 C   0  0  0  0  0  0  0  0  0  0  0  0
   25.2820   15.9370    8.3610 C   0  0  0  0  0  0  0  0  0  0  0  0
   24.1100   15.4070    8.9710 C   0  0  0  0  0  0  0  0  0  0  0  0
   23.7750   15.6480   10.3120 C   0  0  0  0  0  0  0  0  0  0  0  0
   24.6290   16.4290   11.0620 C   0  0  0  0  0  0  0  0  0  0  0  0
   25.7810   16.9480   10.4810 C   0  0  0  0  0  0  0  0  0  0  0  0
   26.1330   16.7210    9.1610 C   0  0  0  0  0  0  0  0  0  0  0  0
   26.5010   17.7120   11.5030 C   0  0  0  0  0  0  0  0  0  0  0  0
   27.5860   18.2390   11.3440 O   0  0  0  0  0  0  0  0  0  0  0  0
   25.7300   17.6730   12.6530 N   0  0  0  0  0  0  0  0  0  0  0  0
   26.2150   18.1650   13.9390 C   0  0  2  0  0  0  0  0  0  0  0  0
   25.8290   17.2080   15.0670 C   0  0  0  0  0  0  0  0  0  0  0  0
   26.4540   17.6740   16.3730 C   0  0  0  0  0  0  0  0  0  0  0  0
   26.0550   19.0940   16.6930 C   0  0  0  0  0  0  0  0  0  0  0  0
   25.9220   19.4970   17.8450 O   0  0  0  0  0  0  0  0  0  0  0  0
   25.8790   19.9360   15.6250 N   0  0  0  0  0  0  0  0  0  0  0  0
   25.7620   19.5890   14.2980 C   0  0  0  0  0  0  0  0  0  0  0  0
   25.3500   20.4120   13.4830 O   0  0  0  0  0  0  0  0  0  0  0  0
   24.5380   16.8460   12.4930 C   0  0  0  0  0  0  0  0  0  0  0  0
   24.5070   15.5360    6.1130 N   0  0  0  0  0  0  0  0  0  0  0  0
   25.2740   11.9040    4.0570 C   0  0  0  0  0  0  0  0  0  0  0  0
   25.8780   11.2060    4.9970 N   0  0  0  0  0  0  0  0  0  0  0  0
   24.7464    9.1845    8.6779 H   0  0  0  0  0  0  0  0  0  0  0  0
   23.8606    9.4192    7.1330 H   0  0  0  0  0  0  0  0  0  0  0  0
   25.4708    8.6230    7.1330 H   0  0  0  0  0  0  0  0  0  0  0  0
   25.2279   11.4072    8.2622 H   0  0  0  0  0  0  0  0  0  0  0  0
   26.6104   10.5904    7.4075 H   0  0  0  0  0  0  0  0  0  0  0  0
   23.3467   12.6596    6.6108 H   0  0  0  0  0  0  0  0  0  0  0  0
   26.1986   14.8572    3.2674 H   0  0  0  0  0  0  0  0  0  0  0  0
   27.7215   15.6147    7.1229 H   0  0  0  0  0  0  0  0  0  0  0  0
   23.4381   14.7816    8.3649 H   0  0  0  0  0  0  0  0  0  0  0  0
   22.8589   15.2268   10.7518 H   0  0  0  0  0  0  0  0  0  0  0  0
   27.0594   17.1452    8.7464 H   0  0  0  0  0  0  0  0  0  0  0  0
   27.3083   18.2103   13.8265 H   0  0  0  0  0  0  0  0  0  0  0  0
   24.7342   17.1896   15.1720 H   0  0  0  0  0  0  0  0  0  0  0  0
   26.1949   16.1984   14.8286 H   0  0  0  0  0  0  0  0  0  0  0  0
   26.1179   17.0148   17.1869 H   0  0  0  0  0  0  0  0  0  0  0  0
   27.5484   17.6348   16.2689 H   0  0  0  0  0  0  0  0  0  0  0  0
   25.8286   20.9420   15.8401 H   0  0  0  0  0  0  0  0  0  0  0  0
   24.5646   15.9749   13.1641 H   0  0  0  0  0  0  0  0  0  0  0  0
   23.6026   17.3693   12.7404 H   0  0  0  0  0  0  0  0  0  0  0  0
   25.6088   11.9693    3.0112 H   0  0  0  0  0  0  0  0  0  0  0  0
  1  2  1  0
  2  3  1  0
  3  4  2  0
  4  5  1  0
  5  6  1  0
  6  7  2  0
  6  8  2  0
  6  9  1  0
  9 10  1  0
 10 11  2  0
 11 12  1  0
 12 13  2  0
 13 14  1  0
 14 15  1  0
 15 16  2  0
 16 17  1  0
 17 18  2  0
 18 19  1  0
 19 20  2  0
 19 21  1  0
 21 22  2  0
 21 23  1  0
 23 24  1  0
 24 25  1  0
 25 26  1  0
 26 27  1  0
 27 28  2  0
 27 29  1  0
 29 30  1  0
 30 31  2  0
 23 32  1  0
 14 33  2  0
  5 34  1  0
 34 35  2  0
 35  3  1  0
 33 10  1  0
 20 15  1  0
 30 24  1  0
 32 18  1  0
  1 36  1  0
  1 37  1  0
  1 38  1  0
  2 39  1  0
  2 40  1  0
  4 41  1  0
 11 42  1  0
 13 43  1  0
 16 44  1  0
 17 45  1  0
 20 46  1  0
 24 47  1  6
 25 48  1  0
 25 49  1  0
 26 50  1  0
 26 51  1  0
 29 52  1  0
 32 53  1  0
 32 54  1  0
 34 55  1  0
M  END
>  <meeko>  (713) 
{"is_sidechain": [true], "free_energy": -11.67, "intermolecular_energy": 0.0, "internal_energy": -11.67, "cluster_size": 10, "cluster_id": 1, "rank_in_cluster": 1}

>  <_RMSD_MCS_to_ref>  (713) 
1.1561057717854166

$$$$
ligand
     RDKit          3D

 60 64  0  0  0  0  0  0  0  0999 V2000
   24.8540    9.4020    7.6050 C   0  0  0  0  0  0  0  0  0  0  0  0
   25.5230   10.7550    7.4270 C   0  0  0  0  0  0  0  0  0  0  0  0
   25.0150   11.4820    6.2330 C   0  0  0  0  0  0  0  0  0  0  0  0
   25.3510   12.7420    5.7770 C   0  0  0  0  0  0  0  0  0  0  0  0
   24.6220   12.8900    4.6340 N   0  0  0  0  0  0  0  0  0  0  0  0
   24.5040   14.2760    3.6980 S   0  0  0  0  0  6  0  0  0  0  0  0
   23.6780   15.2270    4.4160 O   0  0  0  0  0  0  0  0  0  0  0  0
   24.1160   13.7930    2.3840 O   0  0  0  0  0  0  0  0  0  0  0  0
   26.1380   14.9500    3.5660 C   0  0  0  0  0  0  0  0  0  0  0  0
   26.9300   14.5740    2.4710 C   0  0  0  0  0  0  0  0  0  0  0  0
   28.1920   15.1450    2.2900 C   0  0  0  0  0  0  0  0  0  0  0  0
   28.6650   16.0980    3.1910 C   0  0  0  0  0  0  0  0  0  0  0  0
   27.8750   16.4860    4.2740 C   0  0  0  0  0  0  0  0  0  0  0  0
   26.6050   15.9190    4.4570 C   0  0  0  0  0  0  0  0  0  0  0  0
   25.8370   16.3270    5.6470 C   0  0  0  0  0  0  0  0  0  0  0  0
   24.8240   16.9810    5.4480 O   0  0  0  0  0  0  0  0  0  0  0  0
   26.3660   15.8970    6.8450 N   0  0  0  0  0  0  0  0  0  0  0  0
   25.8400   16.1220    8.1340 C   0  0  0  0  0  0  0  0  0  0  0  0
   24.6520   15.4300    8.4670 C   0  0  0  0  0  0  0  0  0  0  0  0
   24.0470   15.5870    9.7180 C   0  0  0  0  0  0  0  0  0  0  0  0
   24.6530   16.4460   10.6100 C   0  0  0  0  0  0  0  0  0  0  0  0
   25.8250   17.1340   10.3070 C   0  0  0  0  0  0  0  0  0  0  0  0
   26.4310   16.9810    9.0700 C   0  0  0  0  0  0  0  0  0  0  0  0
   26.2490   17.9530   11.4780 C   0  0  0  0  0  0  0  0  0  0  0  0
   25.1530   17.7630   12.4180 N   0  0  0  0  0  0  0  0  0  0  0  0
   25.2480   18.2260   13.7980 C   0  0  1  0  0  0  0  0  0  0  0  0
   26.3020   17.4870   14.6230 C   0  0  0  0  0  0  0  0  0  0  0  0
   26.2750   18.0030   16.0530 C   0  0  0  0  0  0  0  0  0  0  0  0
   26.4910   19.4970   16.1000 C   0  0  0  0  0  0  0  0  0  0  0  0
   26.9210   20.0640   17.1020 O   0  0  0  0  0  0  0  0  0  0  0  0
   26.1030   20.2120   14.9950 N   0  0  0  0  0  0  0  0  0  0  0  0
   25.4790   19.7430   13.8610 C   0  0  0  0  0  0  0  0  0  0  0  0
   25.0510   20.5330   13.0190 O   0  0  0  0  0  0  0  0  0  0  0  0
   24.2530   16.8040   11.9740 C   0  0  0  0  0  0  0  0  0  0  0  0
   23.3110   16.3160   12.5680 O   0  0  0  0  0  0  0  0  0  0  0  0
   23.8260   11.8000    4.4720 C   0  0  0  0  0  0  0  0  0  0  0  0
   24.0610   10.9090    5.4120 N   0  0  0  0  0  0  0  0  0  0  0  0
   24.7464    9.1845    8.6779 H   0  0  0  0  0  0  0  0  0  0  0  0
   23.8606    9.4192    7.1330 H   0  0  0  0  0  0  0  0  0  0  0  0
   25.4708    8.6230    7.1330 H   0  0  0  0  0  0  0  0  0  0  0  0
   25.3304   11.3655    8.3215 H   0  0  0  0  0  0  0  0  0  0  0  0
   26.5998   10.5822    7.2834 H   0  0  0  0  0  0  0  0  0  0  0  0
   26.0475   13.4616    6.2320 H   0  0  0  0  0  0  0  0  0  0  0  0
   26.5567   13.8283    1.7537 H   0  0  0  0  0  0  0  0  0  0  0  0
   28.8139   14.8421    1.4347 H   0  0  0  0  0  0  0  0  0  0  0  0
   29.6604   16.5439    3.0483 H   0  0  0  0  0  0  0  0  0  0  0  0
   28.2487   17.2375    4.9851 H   0  0  0  0  0  0  0  0  0  0  0  0
   27.2391   15.3530    6.7932 H   0  0  0  0  0  0  0  0  0  0  0  0
   24.1953   14.7555    7.7278 H   0  0  0  0  0  0  0  0  0  0  0  0
   23.1251   15.0471    9.9797 H   0  0  0  0  0  0  0  0  0  0  0  0
   27.3571   17.5229    8.8279 H   0  0  0  0  0  0  0  0  0  0  0  0
   27.1978   17.5854   11.8960 H   0  0  0  0  0  0  0  0  0  0  0  0
   26.4307   19.0088   11.2283 H   0  0  0  0  0  0  0  0  0  0  0  0
   24.2760   17.9913   14.2565 H   0  0  0  0  0  0  0  0  0  0  0  0
   26.0833   16.4090   14.6174 H   0  0  0  0  0  0  0  0  0  0  0  0
   27.2975   17.6599   14.1881 H   0  0  0  0  0  0  0  0  0  0  0  0
   25.2982   17.7677   16.5007 H   0  0  0  0  0  0  0  0  0  0  0  0
   27.0867   17.5164   16.6137 H   0  0  0  0  0  0  0  0  0  0  0  0
   26.3029   21.2222   15.0166 H   0  0  0  0  0  0  0  0  0  0  0  0
   23.0871   11.6792    3.6662 H   0  0  0  0  0  0  0  0  0  0  0  0
  1  2  1  0
  2  3  1  0
  3  4  2  0
  4  5  1  0
  5  6  1  0
  6  7  2  0
  6  8  2  0
  6  9  1  0
  9 10  2  0
 10 11  1  0
 11 12  2  0
 12 13  1  0
 13 14  2  0
 14 15  1  0
 15 16  2  0
 15 17  1  0
 17 18  1  0
 18 19  2  0
 19 20  1  0
 20 21  2  0
 21 22  1  0
 22 23  2  0
 22 24  1  0
 24 25  1  0
 25 26  1  0
 26 27  1  0
 27 28  1  0
 28 29  1  0
 29 30  2  0
 29 31  1  0
 31 32  1  0
 32 33  2  0
 25 34  1  0
 34 35  2  0
  5 36  1  0
 36 37  2  0
 37  3  1  0
 14  9  1  0
 23 18  1  0
 32 26  1  0
 34 21  1  0
  1 38  1  0
  1 39  1  0
  1 40  1  0
  2 41  1  0
  2 42  1  0
  4 43  1  0
 10 44  1  0
 11 45  1  0
 12 46  1  0
 13 47  1  0
 17 48  1  0
 19 49  1  0
 20 50  1  0
 23 51  1  0
 24 52  1  0
 24 53  1  0
 26 54  1  1
 27 55  1  0
 27 56  1  0
 28 57  1  0
 28 58  1  0
 31 59  1  0
 36 60  1  0
M  END
>  <meeko>  (714) 
{"is_sidechain": [true], "free_energy": -11.67, "intermolecular_energy": 0.0, "internal_energy": -11.67, "cluster_size": 14, "cluster_id": 2, "rank_in_cluster": 1}

>  <_RMSD_MCS_to_ref>  (714) 
0.8401580208508392

$$$$
ligand
     RDKit          3D

 55 58  0  0  0  0  0  0  0  0999 V2000
   24.8540    9.4020    7.6050 C   0  0  0  0  0  0  0  0  0  0  0  0
   25.5230   10.7550    7.4270 C   0  0  0  0  0  0  0  0  0  0  0  0
   26.9910   10.6910    7.6670 C   0  0  0  0  0  0  0  0  0  0  0  0
   27.8560   11.7100    8.0140 C   0  0  0  0  0  0  0  0  0  0  0  0
   29.0760   11.1020    8.0920 N   0  0  0  0  0  0  0  0  0  0  0  0
   30.5610   11.8810    8.2200 S   0  0  0  0  0  6  0  0  0  0  0  0
   31.3170   11.1470    9.2150 O   0  0  0  0  0  0  0  0  0  0  0  0
   31.0240   12.0470    6.8550 O   0  0  0  0  0  0  0  0  0  0  0  0
   30.1470   13.4670    8.8880 C   0  0  0  0  0  0  0  0  0  0  0  0
   31.1540   14.3970    9.1500 C   0  0  0  0  0  0  0  0  0  0  0  0
   30.8070   15.6490    9.6530 C   0  0  0  0  0  0  0  0  0  0  0  0
   29.4660   15.9640    9.8910 C   0  0  0  0  0  0  0  0  0  0  0  0
   28.4420   15.0330    9.6420 C   0  0  0  0  0  0  0  0  0  0  0  0
   27.0280   15.3680    9.8840 C   0  0  0  0  0  0  0  0  0  0  0  0
   26.0380   15.0820    8.9300 C   0  0  0  0  0  0  0  0  0  0  0  0
   24.6990   15.4120    9.1560 C   0  0  0  0  0  0  0  0  0  0  0  0
   24.3210   16.0330   10.3460 C   0  0  0  0  0  0  0  0  0  0  0  0
   25.2850   16.3150   11.3180 C   0  0  0  0  0  0  0  0  0  0  0  0
   24.9440   16.9850   12.6040 C   0  0  0  0  0  0  0  0  0  0  0  0
   23.7760   17.0640   12.9720 O   0  0  0  0  0  0  0  0  0  0  0  0
   25.9910   17.5260   13.3160 N   0  0  0  0  0  0  0  0  0  0  0  0
   25.7510   18.3440   14.4970 C   0  0  1  0  0  0  0  0  0  0  0  0
   26.5240   17.8450   15.7140 C   0  0  0  0  0  0  0  0  0  0  0  0
   26.2590   18.7650   16.8950 C   0  0  0  0  0  0  0  0  0  0  0  0
   26.6000   20.1980   16.5600 C   0  0  0  0  0  0  0  0  0  0  0  0
   27.0500   20.9800   17.3920 O   0  0  0  0  0  0  0  0  0  0  0  0
   26.3550   20.6050   15.2730 N   0  0  0  0  0  0  0  0  0  0  0  0
   26.1810   19.7810   14.1880 C   0  0  0  0  0  0  0  0  0  0  0  0
   26.3530   20.1920   13.0410 O   0  0  0  0  0  0  0  0  0  0  0  0
   26.6290   15.9900   11.0800 C   0  0  0  0  0  0  0  0  0  0  0  0
   28.8050   13.7710    9.1450 C   0  0  0  0  0  0  0  0  0  0  0  0
   28.9390    9.7880    7.7750 C   0  0  0  0  0  0  0  0  0  0  0  0
   27.6790    9.5020    7.5220 N   0  0  0  0  0  0  0  0  0  0  0  0
   24.7464    9.1845    8.6779 H   0  0  0  0  0  0  0  0  0  0  0  0
   23.8606    9.4192    7.1330 H   0  0  0  0  0  0  0  0  0  0  0  0
   25.4708    8.6230    7.1330 H   0  0  0  0  0  0  0  0  0  0  0  0
   25.3468   11.1051    6.3992 H   0  0  0  0  0  0  0  0  0  0  0  0
   25.0895   11.4464    8.1646 H   0  0  0  0  0  0  0  0  0  0  0  0
   27.6168   12.7695    8.1878 H   0  0  0  0  0  0  0  0  0  0  0  0
   32.2080   14.1448    8.9618 H   0  0  0  0  0  0  0  0  0  0  0  0
   31.5905   16.3918    9.8635 H   0  0  0  0  0  0  0  0  0  0  0  0
   29.2068   16.9595   10.2806 H   0  0  0  0  0  0  0  0  0  0  0  0
   26.3215   14.5895    7.9882 H   0  0  0  0  0  0  0  0  0  0  0  0
   23.9410   15.1812    8.3930 H   0  0  0  0  0  0  0  0  0  0  0  0
   23.2680   16.2999   10.5191 H   0  0  0  0  0  0  0  0  0  0  0  0
   26.9582   17.3496   13.0089 H   0  0  0  0  0  0  0  0  0  0  0  0
   24.6794   18.2881   14.7389 H   0  0  0  0  0  0  0  0  0  0  0  0
   26.1967   16.8248   15.9633 H   0  0  0  0  0  0  0  0  0  0  0  0
   27.6005   17.8397   15.4877 H   0  0  0  0  0  0  0  0  0  0  0  0
   25.1946   18.7036   17.1656 H   0  0  0  0  0  0  0  0  0  0  0  0
   26.8926   18.4440   17.7350 H   0  0  0  0  0  0  0  0  0  0  0  0
   26.2963   21.6196   15.1053 H   0  0  0  0  0  0  0  0  0  0  0  0
   27.3847   16.2263   11.8436 H   0  0  0  0  0  0  0  0  0  0  0  0
   28.0285   13.0151    8.9561 H   0  0  0  0  0  0  0  0  0  0  0  0
   29.7659    9.0637    7.7352 H   0  0  0  0  0  0  0  0  0  0  0  0
  1  2  1  0
  2  3  1  0
  3  4  2  0
  4  5  1  0
  5  6  1  0
  6  7  2  0
  6  8  2  0
  6  9  1  0
  9 10  2  0
 10 11  1  0
 11 12  2  0
 12 13  1  0
 13 14  1  0
 14 15  2  0
 15 16  1  0
 16 17  2  0
 17 18  1  0
 18 19  1  0
 19 20  2  0
 19 21  1  0
 21 22  1  0
 22 23  1  0
 23 24  1  0
 24 25  1  0
 25 26  2  0
 25 27  1  0
 27 28  1  0
 28 29  2  0
 18 30  2  0
 13 31  2  0
  5 32  1  0
 32 33  2  0
 33  3  1  0
 31  9  1  0
 30 14  1  0
 28 22  1  0
  1 34  1  0
  1 35  1  0
  1 36  1  0
  2 37  1  0
  2 38  1  0
  4 39  1  0
 10 40  1  0
 11 41  1  0
 12 42  1  0
 15 43  1  0
 16 44  1  0
 17 45  1  0
 21 46  1  0
 22 47  1  1
 23 48  1  0
 23 49  1  0
 24 50  1  0
 24 51  1  0
 27 52  1  0
 30 53  1  0
 31 54  1  0
 32 55  1  0
M  END
>  <meeko>  (715) 
{"is_sidechain": [true], "free_energy": -11.67, "intermolecular_energy": 0.0, "internal_energy": -11.67, "cluster_size": 15, "cluster_id": 1, "rank_in_cluster": 1}

>  <_RMSD_MCS_to_ref>  (715) 
0.957974425545901

$$$$
ligand
     RDKit          3D

 57 61  0  0  0  0  0  0  0  0999 V2000
   24.8710    9.6160    7.7820 C   0  0  0  0  0  0  0  0  0  0  0  0
   25.4240   10.9650    7.3490 C   0  0  0  0  0  0  0  0  0  0  0  0
   26.6640   11.3240    8.0880 C   0  0  0  0  0  0  0  0  0  0  0  0
   27.9300   11.5740    7.5920 C   0  0  0  0  0  0  0  0  0  0  0  0
   28.6830   11.8130    8.7060 N   0  0  0  0  0  0  0  0  0  0  0  0
   30.2730   12.3530    8.7230 S   0  0  0  0  0  6  0  0  0  0  0  0
   30.3270   13.2330    9.8780 O   0  0  0  0  0  0  0  0  0  0  0  0
   31.1300   11.1880    8.6340 O   0  0  0  0  0  0  0  0  0  0  0  0
   30.5000   13.3430    7.2610 C   0  0  0  0  0  0  0  0  0  0  0  0
   31.6430   13.0810    6.4820 C   0  0  0  0  0  0  0  0  0  0  0  0
   31.8510   13.7610    5.2820 C   0  0  0  0  0  0  0  0  0  0  0  0
   30.9170   14.6910    4.8450 C   0  0  0  0  0  0  0  0  0  0  0  0
   29.7770   14.9460    5.6100 C   0  0  0  0  0  0  0  0  0  0  0  0
   29.5460   14.2810    6.8310 C   0  0  0  0  0  0  0  0  0  0  0  0
   28.3580   14.6280    7.5980 C   0  0  0  0  0  0  0  0  0  0  0  0
   27.0930   14.4590    7.2740 N   0  0  0  0  0  0  0  0  0  0  0  0
   26.4090   14.9410    8.3580 C   0  0  0  0  0  0  0  0  0  0  0  0
   25.0350   15.0470    8.6040 C   0  0  0  0  0  0  0  0  0  0  0  0
   24.6240   15.5940    9.8320 C   0  0  0  0  0  0  0  0  0  0  0  0
   25.5630   16.0140   10.7940 C   0  0  0  0  0  0  0  0  0  0  0  0
   25.1390   16.5970   12.0990 C   0  0  0  0  0  0  0  0  0  0  0  0
   24.0060   16.4060   12.5240 O   0  0  0  0  0  0  0  0  0  0  0  0
   26.0630   17.3760   12.7590 N   0  0  0  0  0  0  0  0  0  0  0  0
   25.6980   18.1130   13.9620 C   0  0  1  0  0  0  0  0  0  0  0  0
   26.2900   17.4920   15.2230 C   0  0  0  0  0  0  0  0  0  0  0  0
   25.9030   18.3320   16.4310 C   0  0  0  0  0  0  0  0  0  0  0  0
   26.3300   19.7710   16.2580 C   0  0  0  0  0  0  0  0  0  0  0  0
   26.6850   20.4710   17.2020 O   0  0  0  0  0  0  0  0  0  0  0  0
   26.2740   20.2810   14.9870 N   0  0  0  0  0  0  0  0  0  0  0  0
   26.2120   19.5500   13.8260 C   0  0  0  0  0  0  0  0  0  0  0  0
   26.5390   20.0390   12.7450 O   0  0  0  0  0  0  0  0  0  0  0  0
   26.9440   15.9230   10.5470 C   0  0  0  0  0  0  0  0  0  0  0  0
   27.3020   15.3770    9.3210 C   0  0  0  0  0  0  0  0  0  0  0  0
   28.5630   15.1700    8.8420 O   0  0  0  0  0  0  0  0  0  0  0  0
   27.8740   11.8050    9.7980 C   0  0  0  0  0  0  0  0  0  0  0  0
   26.6440   11.4730    9.4610 N   0  0  0  0  0  0  0  0  0  0  0  0
   24.8497    9.5640    8.8806 H   0  0  0  0  0  0  0  0  0  0  0  0
   23.8507    9.4948    7.3893 H   0  0  0  0  0  0  0  0  0  0  0  0
   25.5127    8.8135    7.3893 H   0  0  0  0  0  0  0  0  0  0  0  0
   25.6505   10.9269    6.2733 H   0  0  0  0  0  0  0  0  0  0  0  0
   24.6644   11.7294    7.5697 H   0  0  0  0  0  0  0  0  0  0  0  0
   28.2559   11.5792    6.5414 H   0  0  0  0  0  0  0  0  0  0  0  0
   32.3768   12.3353    6.8218 H   0  0  0  0  0  0  0  0  0  0  0  0
   32.7522   13.5612    4.6837 H   0  0  0  0  0  0  0  0  0  0  0  0
   31.0750   15.2263    3.8971 H   0  0  0  0  0  0  0  0  0  0  0  0
   29.0427   15.6825    5.2516 H   0  0  0  0  0  0  0  0  0  0  0  0
   24.2987   14.7122    7.8585 H   0  0  0  0  0  0  0  0  0  0  0  0
   23.5497   15.6958   10.0454 H   0  0  0  0  0  0  0  0  0  0  0  0
   27.0254   17.4386   12.3974 H   0  0  0  0  0  0  0  0  0  0  0  0
   24.6028   18.0849   14.0604 H   0  0  0  0  0  0  0  0  0  0  0  0
   25.9006   16.4707   15.3465 H   0  0  0  0  0  0  0  0  0  0  0  0
   27.3860   17.4581   15.1356 H   0  0  0  0  0  0  0  0  0  0  0  0
   24.8110   18.2950   16.5583 H   0  0  0  0  0  0  0  0  0  0  0  0
   26.4118   17.9227   17.3162 H   0  0  0  0  0  0  0  0  0  0  0  0
   26.2789   21.3068   14.8941 H   0  0  0  0  0  0  0  0  0  0  0  0
   27.6929   16.2624   11.2777 H   0  0  0  0  0  0  0  0  0  0  0  0
   28.2006   12.0427   10.8212 H   0  0  0  0  0  0  0  0  0  0  0  0
  1  2  1  0
  2  3  1  0
  3  4  2  0
  4  5  1  0
  5  6  1  0
  6  7  2  0
  6  8  2  0
  6  9  1  0
  9 10  2  0
 10 11  1  0
 11 12  2  0
 12 13  1  0
 13 14  2  0
 14 15  1  0
 15 16  2  0
 16 17  1  0
 17 18  2  0
 18 19  1  0
 19 20  2  0
 20 21  1  0
 21 22  2  0
 21 23  1  0
 23 24  1  0
 24 25  1  0
 25 26  1  0
 26 27  1  0
 27 28  2  0
 27 29  1  0
 29 30  1  0
 30 31  2  0
 20 32  1  0
 32 33  2  0
 33 34  1  0
  5 35  1  0
 35 36  2  0
 36  3  1  0
 14  9  1  0
 34 15  1  0
 33 17  1  0
 30 24  1  0
  1 37  1  0
  1 38  1  0
  1 39  1  0
  2 40  1  0
  2 41  1  0
  4 42  1  0
 10 43  1  0
 11 44  1  0
 12 45  1  0
 13 46  1  0
 18 47  1  0
 19 48  1  0
 23 49  1  0
 24 50  1  1
 25 51  1  0
 25 52  1  0
 26 53  1  0
 26 54  1  0
 29 55  1  0
 32 56  1  0
 35 57  1  0
M  END
>  <meeko>  (716) 
{"is_sidechain": [true], "free_energy": -11.67, "intermolecular_energy": 0.0, "internal_energy": -11.67, "cluster_size": 20, "cluster_id": 1, "rank_in_cluster": 1}

>  <_RMSD_MCS_to_ref>  (716) 
1.1013867521346794

$$$$
ligand
     RDKit          3D

 57 61  0  0  0  0  0  0  0  0999 V2000
   24.8540    9.4020    7.6050 C   0  0  0  0  0  0  0  0  0  0  0  0
   25.5230   10.7550    7.4270 C   0  0  0  0  0  0  0  0  0  0  0  0
   24.9910   11.4940    6.2500 C   0  0  0  0  0  0  0  0  0  0  0  0
   25.1820   12.8150    5.8960 C   0  0  0  0  0  0  0  0  0  0  0  0
   24.4390   12.9670    4.7580 N   0  0  0  0  0  0  0  0  0  0  0  0
   24.4880   14.2890    3.7310 S   0  0  0  0  0  6  0  0  0  0  0  0
   23.4050   15.1840    4.0910 O   0  0  0  0  0  0  0  0  0  0  0  0
   24.5720   13.7090    2.4010 O   0  0  0  0  0  0  0  0  0  0  0  0
   25.9380   15.1900    3.8920 C   0  0  0  0  0  0  0  0  0  0  0  0
   26.8320   15.4230    2.8620 C   0  0  0  0  0  0  0  0  0  0  0  0
   27.7400   16.3080    3.3450 N   0  0  0  0  0  0  0  0  0  0  0  0
   27.5080   16.6590    4.6160 N   0  0  0  0  0  0  0  0  0  0  0  0
   26.4300   15.9510    4.9790 C   0  0  0  0  0  0  0  0  0  0  0  0
   26.0190   16.1370    6.2790 N   0  0  0  0  0  0  0  0  0  0  0  0
   26.4080   15.3820    7.3540 C   0  0  0  0  0  0  0  0  0  0  0  0
   27.2730   14.5150    7.3110 O   0  0  0  0  0  0  0  0  0  0  0  0
   25.7890   15.7340    8.6650 C   0  0  0  0  0  0  0  0  0  0  0  0
   24.4480   15.3410    8.8950 C   0  0  0  0  0  0  0  0  0  0  0  0
   23.7930   15.6430   10.0970 C   0  0  0  0  0  0  0  0  0  0  0  0
   24.4970   16.3410   11.0590 C   0  0  0  0  0  0  0  0  0  0  0  0
   25.8130   16.7310   10.8210 C   0  0  0  0  0  0  0  0  0  0  0  0
   26.4830   16.4560    9.6430 C   0  0  0  0  0  0  0  0  0  0  0  0
   26.2930   17.4570   12.0000 C   0  0  0  0  0  0  0  0  0  0  0  0
   27.3830   17.9900   12.0790 O   0  0  0  0  0  0  0  0  0  0  0  0
   25.2790   17.4080   12.9440 N   0  0  0  0  0  0  0  0  0  0  0  0
   25.2580   18.2010   14.1690 C   0  0  1  0  0  0  0  0  0  0  0  0
   26.1470   17.6440   15.2800 C   0  0  0  0  0  0  0  0  0  0  0  0
   26.0000   18.5070   16.5240 C   0  0  0  0  0  0  0  0  0  0  0  0
   26.3310   19.9510   16.2300 C   0  0  0  0  0  0  0  0  0  0  0  0
   26.6880   20.7310   17.1090 O   0  0  0  0  0  0  0  0  0  0  0  0
   26.1320   20.3790   14.9420 N   0  0  0  0  0  0  0  0  0  0  0  0
   25.6070   19.6700   13.8860 C   0  0  0  0  0  0  0  0  0  0  0  0
   25.3470   20.2370   12.8250 O   0  0  0  0  0  0  0  0  0  0  0  0
   24.0590   16.8230   12.4020 C   0  0  0  0  0  0  0  0  0  0  0  0
   23.9180   11.7610    4.4080 C   0  0  0  0  0  0  0  0  0  0  0  0
   24.2090   10.8470    5.3120 N   0  0  0  0  0  0  0  0  0  0  0  0
   24.7464    9.1845    8.6779 H   0  0  0  0  0  0  0  0  0  0  0  0
   23.8606    9.4192    7.1330 H   0  0  0  0  0  0  0  0  0  0  0  0
   25.4708    8.6230    7.1330 H   0  0  0  0  0  0  0  0  0  0  0  0
   25.3505   11.3573    8.3311 H   0  0  0  0  0  0  0  0  0  0  0  0
   26.5964   10.5819    7.2604 H   0  0  0  0  0  0  0  0  0  0  0  0
   25.7920   13.5716    6.4113 H   0  0  0  0  0  0  0  0  0  0  0  0
   26.8109   14.9803    1.8552 H   0  0  0  0  0  0  0  0  0  0  0  0
   28.5276   16.6727    2.7903 H   0  0  0  0  0  0  0  0  0  0  0  0
   25.3627   16.9101    6.4593 H   0  0  0  0  0  0  0  0  0  0  0  0
   23.9084   14.7865    8.1131 H   0  0  0  0  0  0  0  0  0  0  0  0
   22.7514   15.3339   10.2688 H   0  0  0  0  0  0  0  0  0  0  0  0
   27.5183   16.7907    9.4812 H   0  0  0  0  0  0  0  0  0  0  0  0
   24.2246   18.1403   14.5411 H   0  0  0  0  0  0  0  0  0  0  0  0
   25.8432   16.6123   15.5109 H   0  0  0  0  0  0  0  0  0  0  0  0
   27.1962   17.6506   14.9496 H   0  0  0  0  0  0  0  0  0  0  0  0
   24.9627   18.4430   16.8844 H   0  0  0  0  0  0  0  0  0  0  0  0
   26.6999   18.1381   17.2882 H   0  0  0  0  0  0  0  0  0  0  0  0
   26.4096   21.3502   14.7406 H   0  0  0  0  0  0  0  0  0  0  0  0
   23.7066   15.9895   13.0274 H   0  0  0  0  0  0  0  0  0  0  0  0
   23.2167   17.5293   12.3598 H   0  0  0  0  0  0  0  0  0  0  0  0
   23.3335   11.5736    3.4952 H   0  0  0  0  0  0  0  0  0  0  0  0
  1  2  1  0
  2  3  1  0
  3  4  2  0
  4  5  1  0
  5  6  1  0
  6  7  2  0
  6  8  2  0
  6  9  1  0
  9 10  2  0
 10 11  1  0
 11 12  1  0
 12 13  2  0
 13 14  1  0
 14 15  1  0
 15 16  2  0
 15 17  1  0
 17 18  2  0
 18 19  1  0
 19 20  2  0
 20 21  1  0
 21 22  2  0
 21 23  1  0
 23 24  2  0
 23 25  1  0
 25 26  1  0
 26 27  1  0
 27 28  1  0
 28 29  1  0
 29 30  2  0
 29 31  1  0
 31 32  1  0
 32 33  2  0
 25 34  1  0
  5 35  1  0
 35 36  2  0
 36  3  1  0
 13  9  1  0
 22 17  1  0
 32 26  1  0
 34 20  1  0
  1 37  1  0
  1 38  1  0
  1 39  1  0
  2 40  1  0
  2 41  1  0
  4 42  1  0
 10 43  1  0
 11 44  1  0
 14 45  1  0
 18 46  1  0
 19 47  1  0
 22 48  1  0
 26 49  1  1
 27 50  1  0
 27 51  1  0
 28 52  1  0
 28 53  1  0
 31 54  1  0
 34 55  1  0
 34 56  1  0
 35 57  1  0
M  END
>  <meeko>  (717) 
{"is_sidechain": [true], "free_energy": -11.66, "intermolecular_energy": 0.0, "internal_energy": -11.66, "cluster_size": 18, "cluster_id": 1, "rank_in_cluster": 1}

>  <_RMSD_MCS_to_ref>  (717) 
0.7397530368680855

$$$$
ligand
     RDKit          3D

 54 58  0  0  0  0  0  0  0  0999 V2000
   24.8540    9.4020    7.6050 C   0  0  0  0  0  0  0  0  0  0  0  0
   25.5230   10.7550    7.4270 C   0  0  0  0  0  0  0  0  0  0  0  0
   24.9380   11.5270    6.2970 C   0  0  0  0  0  0  0  0  0  0  0  0
   24.9590   12.8890    6.0740 C   0  0  0  0  0  0  0  0  0  0  0  0
   24.2560   13.0490    4.9140 N   0  0  0  0  0  0  0  0  0  0  0  0
   24.1510   14.4710    4.0220 S   0  0  0  0  0  6  0  0  0  0  0  0
   22.7500   14.5960    3.6670 O   0  0  0  0  0  0  0  0  0  0  0  0
   25.1770   14.3690    2.9980 O   0  0  0  0  0  0  0  0  0  0  0  0
   24.5440   15.6870    5.0400 O   0  0  0  0  0  0  0  0  0  0  0  0
   25.7970   16.1120    5.2310 C   0  0  0  0  0  0  0  0  0  0  0  0
   26.7310   16.2240    4.2270 N   0  0  0  0  0  0  0  0  0  0  0  0
   27.9350   16.6380    4.6520 N   0  0  0  0  0  0  0  0  0  0  0  0
   27.7680   16.7880    5.9670 C   0  0  0  0  0  0  0  0  0  0  0  0
   26.4560   16.4730    6.3930 C   0  0  0  0  0  0  0  0  0  0  0  0
   25.8750   16.4840    7.7250 C   0  0  0  0  0  0  0  0  0  0  0  0
   24.6510   15.8140    7.9630 C   0  0  0  0  0  0  0  0  0  0  0  0
   24.0520   15.8060    9.2310 C   0  0  0  0  0  0  0  0  0  0  0  0
   24.6940   16.4720   10.2580 C   0  0  0  0  0  0  0  0  0  0  0  0
   25.9010   17.1230   10.0200 C   0  0  0  0  0  0  0  0  0  0  0  0
   26.5150   17.1460    8.7820 C   0  0  0  0  0  0  0  0  0  0  0  0
   26.3390   17.7460   11.2730 C   0  0  0  0  0  0  0  0  0  0  0  0
   27.3110   18.4690   11.3790 O   0  0  0  0  0  0  0  0  0  0  0  0
   25.4270   17.3690   12.2480 N   0  0  0  0  0  0  0  0  0  0  0  0
   25.3640   17.9560   13.5830 C   0  0  1  0  0  0  0  0  0  0  0  0
   26.2990   17.2880   14.5920 C   0  0  0  0  0  0  0  0  0  0  0  0
   26.1080   17.9340   15.9570 C   0  0  0  0  0  0  0  0  0  0  0  0
   26.3430   19.4250   15.8950 C   0  0  0  0  0  0  0  0  0  0  0  0
   26.6640   20.0780   16.8840 O   0  0  0  0  0  0  0  0  0  0  0  0
   26.0990   20.0380   14.6920 N   0  0  0  0  0  0  0  0  0  0  0  0
   25.6150   19.4700   13.5360 C   0  0  0  0  0  0  0  0  0  0  0  0
   25.3130   20.1790   12.5760 O   0  0  0  0  0  0  0  0  0  0  0  0
   24.2910   16.6560   11.6820 C   0  0  0  0  0  0  0  0  0  0  0  0
   23.9080   11.8290    4.4330 C   0  0  0  0  0  0  0  0  0  0  0  0
   24.2810   10.8810    5.2670 N   0  0  0  0  0  0  0  0  0  0  0  0
   24.7464    9.1845    8.6779 H   0  0  0  0  0  0  0  0  0  0  0  0
   23.8606    9.4192    7.1330 H   0  0  0  0  0  0  0  0  0  0  0  0
   25.4708    8.6230    7.1330 H   0  0  0  0  0  0  0  0  0  0  0  0
   25.4006   11.3353    8.3534 H   0  0  0  0  0  0  0  0  0  0  0  0
   26.5853   10.5795    7.2020 H   0  0  0  0  0  0  0  0  0  0  0  0
   25.4334   13.6674    6.6897 H   0  0  0  0  0  0  0  0  0  0  0  0
   26.5254   16.0100    3.2407 H   0  0  0  0  0  0  0  0  0  0  0  0
   28.5654   17.1211    6.6476 H   0  0  0  0  0  0  0  0  0  0  0  0
   24.1577   15.2868    7.1331 H   0  0  0  0  0  0  0  0  0  0  0  0
   23.0988   15.2848    9.4033 H   0  0  0  0  0  0  0  0  0  0  0  0
   27.4727   17.6658    8.6313 H   0  0  0  0  0  0  0  0  0  0  0  0
   24.3400   17.7719   13.9402 H   0  0  0  0  0  0  0  0  0  0  0  0
   26.0641   16.2153   14.6568 H   0  0  0  0  0  0  0  0  0  0  0  0
   27.3425   17.4131   14.2672 H   0  0  0  0  0  0  0  0  0  0  0  0
   25.0802   17.7470   16.3015 H   0  0  0  0  0  0  0  0  0  0  0  0
   26.8373   17.4957   16.6542 H   0  0  0  0  0  0  0  0  0  0  0  0
   26.3031   21.0467   14.6490 H   0  0  0  0  0  0  0  0  0  0  0  0
   24.1430   15.6867   12.1805 H   0  0  0  0  0  0  0  0  0  0  0  0
   23.3375   17.1918   11.7995 H   0  0  0  0  0  0  0  0  0  0  0  0
   23.3871   11.6561    3.4797 H   0  0  0  0  0  0  0  0  0  0  0  0
  1  2  1  0
  2  3  1  0
  3  4  2  0
  4  5  1  0
  5  6  1  0
  6  7  2  0
  6  8  2  0
  6  9  1  0
  9 10  1  0
 10 11  1  0
 11 12  1  0
 12 13  2  0
 13 14  1  0
 14 15  1  0
 15 16  2  0
 16 17  1  0
 17 18  2  0
 18 19  1  0
 19 20  2  0
 19 21  1  0
 21 22  2  0
 21 23  1  0
 23 24  1  0
 24 25  1  0
 25 26  1  0
 26 27  1  0
 27 28  2  0
 27 29  1  0
 29 30  1  0
 30 31  2  0
 23 32  1  0
  5 33  1  0
 33 34  2  0
 34  3  1  0
 14 10  2  0
 20 15  1  0
 30 24  1  0
 32 18  1  0
  1 35  1  0
  1 36  1  0
  1 37  1  0
  2 38  1  0
  2 39  1  0
  4 40  1  0
 11 41  1  0
 13 42  1  0
 16 43  1  0
 17 44  1  0
 20 45  1  0
 24 46  1  1
 25 47  1  0
 25 48  1  0
 26 49  1  0
 26 50  1  0
 29 51  1  0
 32 52  1  0
 32 53  1  0
 33 54  1  0
M  END
>  <meeko>  (718) 
{"is_sidechain": [true], "free_energy": -11.66, "intermolecular_energy": 0.0, "internal_energy": -11.66, "cluster_size": 11, "cluster_id": 1, "rank_in_cluster": 1}

>  <_RMSD_MCS_to_ref>  (718) 
1.1424570500071807

$$$$
ligand
     RDKit          3D

 59 64  0  0  0  0  0  0  0  0999 V2000
   24.8710    9.6160    7.7820 C   0  0  0  0  0  0  0  0  0  0  0  0
   25.4240   10.9650    7.3490 C   0  0  0  0  0  0  0  0  0  0  0  0
   26.5850   11.3890    8.1780 C   0  0  0  0  0  0  0  0  0  0  0  0
   27.6860   12.1370    7.8140 C   0  0  0  0  0  0  0  0  0  0  0  0
   28.4370   12.2090    8.9530 N   0  0  0  0  0  0  0  0  0  0  0  0
   29.7810   13.2010    9.1930 S   0  0  0  0  0  6  0  0  0  0  0  0
   30.8470   12.5790    8.4270 O   0  0  0  0  0  0  0  0  0  0  0  0
   29.8790   13.3370   10.6350 O   0  0  0  0  0  0  0  0  0  0  0  0
   29.4570   14.6780    8.5680 O   0  0  0  0  0  0  0  0  0  0  0  0
   28.7760   14.7820    7.3760 C   0  0  0  0  0  0  0  0  0  0  0  0
   29.4510   14.5270    6.1770 C   0  0  0  0  0  0  0  0  0  0  0  0
   28.7900   14.6260    4.9490 C   0  0  0  0  0  0  0  0  0  0  0  0
   27.4540   15.0100    4.9990 C   0  0  0  0  0  0  0  0  0  0  0  0
   26.6330   15.1720    3.9260 O   0  0  0  0  0  0  0  0  0  0  0  0
   25.3800   15.5780    4.3600 N   0  0  0  0  0  0  0  0  0  0  0  0
   25.4770   15.6560    5.6900 C   0  0  0  0  0  0  0  0  0  0  0  0
   26.7600   15.2970    6.1620 C   0  0  0  0  0  0  0  0  0  0  0  0
   27.4220   15.1950    7.4060 C   0  0  0  0  0  0  0  0  0  0  0  0
   26.7020   15.5210    8.6430 C   0  0  0  0  0  0  0  0  0  0  0  0
   25.4320   14.9500    8.9110 C   0  0  0  0  0  0  0  0  0  0  0  0
   24.7340   15.2390   10.0860 C   0  0  0  0  0  0  0  0  0  0  0  0
   25.3300   16.1040   10.9810 C   0  0  0  0  0  0  0  0  0  0  0  0
   26.5740   16.6820   10.7500 C   0  0  0  0  0  0  0  0  0  0  0  0
   27.2710   16.4020    9.5850 C   0  0  0  0  0  0  0  0  0  0  0  0
   26.9390   17.5800   11.8860 C   0  0  0  0  0  0  0  0  0  0  0  0
   25.8350   17.3790   12.8160 N   0  0  0  0  0  0  0  0  0  0  0  0
   25.5980   18.2300   13.9770 C   0  0  1  0  0  0  0  0  0  0  0  0
   26.2910   17.7100   15.2320 C   0  0  0  0  0  0  0  0  0  0  0  0
   25.9250   18.5960   16.4140 C   0  0  0  0  0  0  0  0  0  0  0  0
   26.2640   20.0420   16.1370 C   0  0  0  0  0  0  0  0  0  0  0  0
   26.6790   20.7990   17.0080 O   0  0  0  0  0  0  0  0  0  0  0  0
   26.0680   20.4820   14.8520 N   0  0  0  0  0  0  0  0  0  0  0  0
   26.0330   19.6840   13.7310 C   0  0  0  0  0  0  0  0  0  0  0  0
   26.3490   20.1410   12.6350 O   0  0  0  0  0  0  0  0  0  0  0  0
   24.8350   16.5840   12.2750 C   0  0  0  0  0  0  0  0  0  0  0  0
   23.7490   16.3170   12.7540 O   0  0  0  0  0  0  0  0  0  0  0  0
   27.7830   11.5710    9.9570 C   0  0  0  0  0  0  0  0  0  0  0  0
   26.6550   11.0520    9.5160 N   0  0  0  0  0  0  0  0  0  0  0  0
   24.8497    9.5640    8.8806 H   0  0  0  0  0  0  0  0  0  0  0  0
   23.8507    9.4948    7.3893 H   0  0  0  0  0  0  0  0  0  0  0  0
   25.5127    8.8135    7.3893 H   0  0  0  0  0  0  0  0  0  0  0  0
   25.7448   10.8959    6.2991 H   0  0  0  0  0  0  0  0  0  0  0  0
   24.6274   11.7129    7.4758 H   0  0  0  0  0  0  0  0  0  0  0  0
   27.9085   12.5757    6.8301 H   0  0  0  0  0  0  0  0  0  0  0  0
   30.5141   14.2454    6.2010 H   0  0  0  0  0  0  0  0  0  0  0  0
   29.2978   14.4123    3.9969 H   0  0  0  0  0  0  0  0  0  0  0  0
   24.6497   15.9655    6.3455 H   0  0  0  0  0  0  0  0  0  0  0  0
   24.9860   14.2634    8.1764 H   0  0  0  0  0  0  0  0  0  0  0  0
   23.7485   14.7948   10.2898 H   0  0  0  0  0  0  0  0  0  0  0  0
   28.2534   16.8604    9.3983 H   0  0  0  0  0  0  0  0  0  0  0  0
   27.8972   17.2815   12.3363 H   0  0  0  0  0  0  0  0  0  0  0  0
   27.0750   18.6301   11.5880 H   0  0  0  0  0  0  0  0  0  0  0  0
   24.5101   18.2041   14.1377 H   0  0  0  0  0  0  0  0  0  0  0  0
   25.9645   16.6786   15.4312 H   0  0  0  0  0  0  0  0  0  0  0  0
   27.3809   17.7259   15.0839 H   0  0  0  0  0  0  0  0  0  0  0  0
   24.8452   18.5108   16.6058 H   0  0  0  0  0  0  0  0  0  0  0  0
   26.5013   18.2643   17.2902 H   0  0  0  0  0  0  0  0  0  0  0  0
   25.9360   21.4943   14.7149 H   0  0  0  0  0  0  0  0  0  0  0  0
   28.1441   11.4976   10.9934 H   0  0  0  0  0  0  0  0  0  0  0  0
  1  2  1  0
  2  3  1  0
  3  4  2  0
  4  5  1  0
  5  6  1  0
  6  7  2  0
  6  8  2  0
  6  9  1  0
  9 10  1  0
 10 11  2  0
 11 12  1  0
 12 13  2  0
 13 14  1  0
 14 15  1  0
 15 16  2  0
 16 17  1  0
 17 18  2  0
 18 19  1  0
 19 20  2  0
 20 21  1  0
 21 22  2  0
 22 23  1  0
 23 24  2  0
 23 25  1  0
 25 26  1  0
 26 27  1  0
 27 28  1  0
 28 29  1  0
 29 30  1  0
 30 31  2  0
 30 32  1  0
 32 33  1  0
 33 34  2  0
 26 35  1  0
 35 36  2  0
  5 37  1  0
 37 38  2  0
 38  3  1  0
 18 10  1  0
 24 19  1  0
 33 27  1  0
 17 13  1  0
 35 22  1  0
  1 39  1  0
  1 40  1  0
  1 41  1  0
  2 42  1  0
  2 43  1  0
  4 44  1  0
 11 45  1  0
 12 46  1  0
 16 47  1  0
 20 48  1  0
 21 49  1  0
 24 50  1  0
 25 51  1  0
 25 52  1  0
 27 53  1  1
 28 54  1  0
 28 55  1  0
 29 56  1  0
 29 57  1  0
 32 58  1  0
 37 59  1  0
M  END
>  <meeko>  (719) 
{"is_sidechain": [true], "free_energy": -11.66, "intermolecular_energy": 0.0, "internal_energy": -11.66, "cluster_size": 9, "cluster_id": 1, "rank_in_cluster": 1}

>  <_RMSD_MCS_to_ref>  (719) 
1.2710525062656584

$$$$
ligand
     RDKit          3D

 63 68  0  0  0  0  0  0  0  0999 V2000
   24.8710    9.6160    7.7820 C   0  0  0  0  0  0  0  0  0  0  0  0
   25.4240   10.9650    7.3490 C   0  0  0  0  0  0  0  0  0  0  0  0
   26.1620   10.8810    6.0600 C   0  0  0  0  0  0  0  0  0  0  0  0
   27.5180   11.0010    5.8280 C   0  0  0  0  0  0  0  0  0  0  0  0
   27.6430   10.8360    4.4790 N   0  0  0  0  0  0  0  0  0  0  0  0
   29.0370   11.0930    3.5730 S   0  0  0  0  0  6  0  0  0  0  0  0
   28.6750   10.7440    2.2130 O   0  0  0  0  0  0  0  0  0  0  0  0
   30.1120   10.4320    4.2860 O   0  0  0  0  0  0  0  0  0  0  0  0
   29.2930   12.8440    3.6670 C   0  0  0  0  0  0  0  0  0  0  0  0
   30.3130   13.4370    2.9210 C   0  0  0  0  0  0  0  0  0  0  0  0
   30.5030   14.8150    2.9950 C   0  0  0  0  0  0  0  0  0  0  0  0
   29.6800   15.6010    3.8120 C   0  0  0  0  0  0  0  0  0  0  0  0
   28.6610   15.0040    4.5690 C   0  0  0  0  0  0  0  0  0  0  0  0
   27.8080   15.7790    5.4060 N   0  0  0  0  0  0  0  0  0  0  0  0
   27.4260   15.5220    6.7060 C   0  0  0  0  0  0  0  0  0  0  0  0
   26.5990   16.5520    7.1050 C   0  0  0  0  0  0  0  0  0  0  0  0
   25.9870   16.6760    8.4170 C   0  0  0  0  0  0  0  0  0  0  0  0
   24.7190   16.1040    8.6790 C   0  0  0  0  0  0  0  0  0  0  0  0
   24.1170   16.2220    9.9360 C   0  0  0  0  0  0  0  0  0  0  0  0
   24.8090   16.9140   10.9090 C   0  0  0  0  0  0  0  0  0  0  0  0
   26.0540   17.4920   10.6780 C   0  0  0  0  0  0  0  0  0  0  0  0
   26.6550   17.3840    9.4340 C   0  0  0  0  0  0  0  0  0  0  0  0
   26.5270   18.1890   11.9090 C   0  0  0  0  0  0  0  0  0  0  0  0
   25.4950   17.8570   12.8820 N   0  0  0  0  0  0  0  0  0  0  0  0
   25.4390   18.5180   14.1820 C   0  0  2  0  0  0  0  0  0  0  0  0
   26.4440   19.6590   14.3380 C   0  0  0  0  0  0  0  0  0  0  0  0
   26.2570   20.3120   15.6970 C   0  0  0  0  0  0  0  0  0  0  0  0
   26.3940   19.3040   16.8140 C   0  0  0  0  0  0  0  0  0  0  0  0
   26.6950   19.6320   17.9590 O   0  0  0  0  0  0  0  0  0  0  0  0
   26.0820   18.0020   16.5110 N   0  0  0  0  0  0  0  0  0  0  0  0
   25.5900   17.5050   15.3260 C   0  0  0  0  0  0  0  0  0  0  0  0
   25.2030   16.3390   15.2550 O   0  0  0  0  0  0  0  0  0  0  0  0
   24.4250   17.1950   12.2960 C   0  0  0  0  0  0  0  0  0  0  0  0
   23.3550   16.8990   12.7890 O   0  0  0  0  0  0  0  0  0  0  0  0
   26.5460   17.3950    5.9780 C   0  0  0  0  0  0  0  0  0  0  0  0
   27.2710   16.9420    4.9560 N   0  0  0  0  0  0  0  0  0  0  0  0
   28.4750   13.6140    4.5000 C   0  0  0  0  0  0  0  0  0  0  0  0
   26.4110   10.6630    3.9350 C   0  0  0  0  0  0  0  0  0  0  0  0
   25.4860   10.6750    4.8720 N   0  0  0  0  0  0  0  0  0  0  0  0
   24.8497    9.5640    8.8806 H   0  0  0  0  0  0  0  0  0  0  0  0
   23.8507    9.4948    7.3893 H   0  0  0  0  0  0  0  0  0  0  0  0
   25.5127    8.8135    7.3893 H   0  0  0  0  0  0  0  0  0  0  0  0
   24.5878   11.6703    7.2334 H   0  0  0  0  0  0  0  0  0  0  0  0
   26.1298   11.3049    8.1213 H   0  0  0  0  0  0  0  0  0  0  0  0
   28.3153   11.1871    6.5627 H   0  0  0  0  0  0  0  0  0  0  0  0
   30.9613   12.8213    2.2801 H   0  0  0  0  0  0  0  0  0  0  0  0
   31.3040   15.2888    2.4085 H   0  0  0  0  0  0  0  0  0  0  0  0
   29.8332   16.6892    3.8600 H   0  0  0  0  0  0  0  0  0  0  0  0
   27.7256   14.6551    7.3133 H   0  0  0  0  0  0  0  0  0  0  0  0
   24.1977   15.5569    7.8797 H   0  0  0  0  0  0  0  0  0  0  0  0
   23.1306   15.7805   10.1410 H   0  0  0  0  0  0  0  0  0  0  0  0
   27.6364   17.8433    9.2446 H   0  0  0  0  0  0  0  0  0  0  0  0
   27.5091   17.8092   12.2273 H   0  0  0  0  0  0  0  0  0  0  0  0
   26.6652   19.2716   11.7717 H   0  0  0  0  0  0  0  0  0  0  0  0
   24.4413   18.9779   14.2368 H   0  0  0  0  0  0  0  0  0  0  0  0
   27.4665   19.2611   14.2593 H   0  0  0  0  0  0  0  0  0  0  0  0
   26.2803   20.4045   13.5458 H   0  0  0  0  0  0  0  0  0  0  0  0
   27.0184   21.0954   15.8259 H   0  0  0  0  0  0  0  0  0  0  0  0
   25.2453   20.7418   15.7394 H   0  0  0  0  0  0  0  0  0  0  0  0
   26.2347   17.3136   17.2618 H   0  0  0  0  0  0  0  0  0  0  0  0
   25.9667   18.3295    5.9450 H   0  0  0  0  0  0  0  0  0  0  0  0
   27.6884   13.1322    5.0992 H   0  0  0  0  0  0  0  0  0  0  0  0
   26.2132   10.5312    2.8610 H   0  0  0  0  0  0  0  0  0  0  0  0
  1  2  1  0
  2  3  1  0
  3  4  2  0
  4  5  1  0
  5  6  1  0
  6  7  2  0
  6  8  2  0
  6  9  1  0
  9 10  2  0
 10 11  1  0
 11 12  2  0
 12 13  1  0
 13 14  1  0
 14 15  1  0
 15 16  2  0
 16 17  1  0
 17 18  2  0
 18 19  1  0
 19 20  2  0
 20 21  1  0
 21 22  2  0
 21 23  1  0
 23 24  1  0
 24 25  1  0
 25 26  1  0
 26 27  1  0
 27 28  1  0
 28 29  2  0
 28 30  1  0
 30 31  1  0
 31 32  2  0
 24 33  1  0
 33 34  2  0
 16 35  1  0
 35 36  2  0
 13 37  2  0
  5 38  1  0
 38 39  2  0
 39  3  1  0
 37  9  1  0
 36 14  1  0
 22 17  1  0
 31 25  1  0
 33 20  1  0
  1 40  1  0
  1 41  1  0
  1 42  1  0
  2 43  1  0
  2 44  1  0
  4 45  1  0
 10 46  1  0
 11 47  1  0
 12 48  1  0
 15 49  1  0
 18 50  1  0
 19 51  1  0
 22 52  1  0
 23 53  1  0
 23 54  1  0
 25 55  1  1
 26 56  1  0
 26 57  1  0
 27 58  1  0
 27 59  1  0
 30 60  1  0
 35 61  1  0
 37 62  1  0
 38 63  1  0
M  END
>  <meeko>  (720) 
{"is_sidechain": [true], "free_energy": -11.66, "intermolecular_energy": 0.0, "internal_energy": -11.66, "cluster_size": 19, "cluster_id": 1, "rank_in_cluster": 1}

>  <_RMSD_MCS_to_ref>  (720) 
1.8124749580847215

$$$$
ligand
     RDKit          3D

 49 52  0  0  0  0  0  0  0  0999 V2000
   24.8710    9.6160    7.7820 C   0  0  0  0  0  0  0  0  0  0  0  0
   25.4240   10.9650    7.3490 C   0  0  0  0  0  0  0  0  0  0  0  0
   26.5450   11.4180    8.2180 C   0  0  0  0  0  0  0  0  0  0  0  0
   27.6190   12.2250    7.9010 C   0  0  0  0  0  0  0  0  0  0  0  0
   28.3460   12.2850    9.0550 N   0  0  0  0  0  0  0  0  0  0  0  0
   29.6400   13.3240    9.3520 S   0  0  0  0  0  6  0  0  0  0  0  0
   29.9710   13.1120   10.7480 O   0  0  0  0  0  0  0  0  0  0  0  0
   30.5930   13.0370    8.2950 O   0  0  0  0  0  0  0  0  0  0  0  0
   29.0550   14.8330    9.1550 O   0  0  0  0  0  0  0  0  0  0  0  0
   27.7200   15.1250    9.2960 C   0  0  0  0  0  0  0  0  0  0  0  0
   26.9540   14.9520    8.1380 C   0  0  0  0  0  0  0  0  0  0  0  0
   25.5790   15.2010    8.1320 C   0  0  0  0  0  0  0  0  0  0  0  0
   25.0210   15.6460    9.3280 C   0  0  0  0  0  0  0  0  0  0  0  0
   23.7040   15.9160    9.5210 O   0  0  0  0  0  0  0  0  0  0  0  0
   23.5680   16.3090   10.8100 C   0  0  0  0  0  0  0  0  0  0  0  0
   24.7870   16.3340   11.4600 C   0  0  0  0  0  0  0  0  0  0  0  0
   24.9380   16.7420   12.8430 C   0  0  0  0  0  0  0  0  0  0  0  0
   24.7470   15.9750   13.7800 O   0  0  0  0  0  0  0  0  0  0  0  0
   25.2630   18.0650   13.0300 N   0  0  0  0  0  0  0  0  0  0  0  0
   25.3000   18.6530   14.3610 C   0  0  1  0  0  0  0  0  0  0  0  0
   26.3140   17.9600   15.2630 C   0  0  0  0  0  0  0  0  0  0  0  0
   26.3420   18.6490   16.6190 C   0  0  0  0  0  0  0  0  0  0  0  0
   26.6320   20.1250   16.4790 C   0  0  0  0  0  0  0  0  0  0  0  0
   27.2500   20.7580   17.3290 O   0  0  0  0  0  0  0  0  0  0  0  0
   26.1340   20.7460   15.3620 N   0  0  0  0  0  0  0  0  0  0  0  0
   25.6700   20.1320   14.2250 C   0  0  0  0  0  0  0  0  0  0  0  0
   25.5410   20.7530   13.1700 O   0  0  0  0  0  0  0  0  0  0  0  0
   25.7430   15.8670   10.4960 C   0  0  0  0  0  0  0  0  0  0  0  0
   27.1290   15.5880   10.4810 C   0  0  0  0  0  0  0  0  0  0  0  0
   27.6850   11.6130   10.0320 C   0  0  0  0  0  0  0  0  0  0  0  0
   26.5960   11.0500    9.5480 N   0  0  0  0  0  0  0  0  0  0  0  0
   24.8497    9.5640    8.8806 H   0  0  0  0  0  0  0  0  0  0  0  0
   23.8507    9.4948    7.3893 H   0  0  0  0  0  0  0  0  0  0  0  0
   25.5127    8.8135    7.3893 H   0  0  0  0  0  0  0  0  0  0  0  0
   25.7885   10.8830    6.3144 H   0  0  0  0  0  0  0  0  0  0  0  0
   24.6135   11.7043    7.4302 H   0  0  0  0  0  0  0  0  0  0  0  0
   27.8390   12.7093    6.9382 H   0  0  0  0  0  0  0  0  0  0  0  0
   27.4442   14.6131    7.2134 H   0  0  0  0  0  0  0  0  0  0  0  0
   24.9686   15.0531    7.2289 H   0  0  0  0  0  0  0  0  0  0  0  0
   22.6093   16.5744   11.2795 H   0  0  0  0  0  0  0  0  0  0  0  0
   25.4845   18.6511   12.2125 H   0  0  0  0  0  0  0  0  0  0  0  0
   24.3092   18.5322   14.8232 H   0  0  0  0  0  0  0  0  0  0  0  0
   26.0283   16.9058   15.3934 H   0  0  0  0  0  0  0  0  0  0  0  0
   27.3117   18.0158   14.8031 H   0  0  0  0  0  0  0  0  0  0  0  0
   25.3643   18.5206   17.1064 H   0  0  0  0  0  0  0  0  0  0  0  0
   27.1408   18.1941   17.2231 H   0  0  0  0  0  0  0  0  0  0  0  0
   26.1053   21.7755   15.3777 H   0  0  0  0  0  0  0  0  0  0  0  0
   27.7361   15.7321   11.3869 H   0  0  0  0  0  0  0  0  0  0  0  0
   28.0123   11.5476   11.0802 H   0  0  0  0  0  0  0  0  0  0  0  0
  1  2  1  0
  2  3  1  0
  3  4  2  0
  4  5  1  0
  5  6  1  0
  6  7  2  0
  6  8  2  0
  6  9  1  0
  9 10  1  0
 10 11  2  0
 11 12  1  0
 12 13  2  0
 13 14  1  0
 14 15  1  0
 15 16  2  0
 16 17  1  0
 17 18  2  0
 17 19  1  0
 19 20  1  0
 20 21  1  0
 21 22  1  0
 22 23  1  0
 23 24  2  0
 23 25  1  0
 25 26  1  0
 26 27  2  0
 16 28  1  0
 28 29  2  0
  5 30  1  0
 30 31  2  0
 31  3  1  0
 29 10  1  0
 28 13  1  0
 26 20  1  0
  1 32  1  0
  1 33  1  0
  1 34  1  0
  2 35  1  0
  2 36  1  0
  4 37  1  0
 11 38  1  0
 12 39  1  0
 15 40  1  0
 19 41  1  0
 20 42  1  1
 21 43  1  0
 21 44  1  0
 22 45  1  0
 22 46  1  0
 25 47  1  0
 29 48  1  0
 30 49  1  0
M  END
>  <meeko>  (721) 
{"is_sidechain": [true], "free_energy": -11.66, "intermolecular_energy": 0.0, "internal_energy": -11.66, "cluster_size": 15, "cluster_id": 1, "rank_in_cluster": 1}

>  <_RMSD_MCS_to_ref>  (721) 
0.7339023549946325

$$$$
ligand
     RDKit          3D

 49 52  0  0  0  0  0  0  0  0999 V2000
   24.8710    9.6160    7.7820 C   0  0  0  0  0  0  0  0  0  0  0  0
   25.4240   10.9650    7.3490 C   0  0  0  0  0  0  0  0  0  0  0  0
   26.7950   11.2050    7.8780 C   0  0  0  0  0  0  0  0  0  0  0  0
   27.1850   11.9480    8.9750 C   0  0  0  0  0  0  0  0  0  0  0  0
   28.5420   11.7980    9.0140 N   0  0  0  0  0  0  0  0  0  0  0  0
   29.6000   12.6620   10.0030 S   0  0  0  0  0  6  0  0  0  0  0  0
   29.1570   12.3750   11.3540 O   0  0  0  0  0  0  0  0  0  0  0  0
   30.9230   12.2840    9.5420 O   0  0  0  0  0  0  0  0  0  0  0  0
   29.3380   14.2340    9.6670 O   0  0  0  0  0  0  0  0  0  0  0  0
   28.0970   14.7330    9.3600 C   0  0  0  0  0  0  0  0  0  0  0  0
   27.5100   14.7130    8.0930 C   0  0  0  0  0  0  0  0  0  0  0  0
   26.2320   15.2480    7.8770 C   0  0  0  0  0  0  0  0  0  0  0  0
   25.5720   15.7970    8.9790 C   0  0  0  0  0  0  0  0  0  0  0  0
   24.3420   16.3840    9.1010 N   0  0  0  0  0  0  0  0  0  0  0  0
   24.0480   16.8020   10.3440 N   0  0  0  0  0  0  0  0  0  0  0  0
   25.1400   16.4680   11.0660 C   0  0  0  0  0  0  0  0  0  0  0  0
   25.2210   16.7530   12.5070 C   0  0  0  0  0  0  0  0  0  0  0  0
   25.0880   15.8970   13.3770 O   0  0  0  0  0  0  0  0  0  0  0  0
   25.4470   18.0800   12.7920 N   0  0  0  0  0  0  0  0  0  0  0  0
   25.3900   18.6150   14.1370 C   0  0  1  0  0  0  0  0  0  0  0  0
   26.3980   17.9390   15.0610 C   0  0  0  0  0  0  0  0  0  0  0  0
   26.3050   18.5510   16.4500 C   0  0  0  0  0  0  0  0  0  0  0  0
   26.5020   20.0480   16.4040 C   0  0  0  0  0  0  0  0  0  0  0  0
   27.0390   20.6700   17.3160 O   0  0  0  0  0  0  0  0  0  0  0  0
   26.0170   20.6970   15.2970 N   0  0  0  0  0  0  0  0  0  0  0  0
   25.6740   20.1200   14.0990 C   0  0  0  0  0  0  0  0  0  0  0  0
   25.5850   20.7970   13.0760 O   0  0  0  0  0  0  0  0  0  0  0  0
   26.1250   15.8340   10.2530 C   0  0  0  0  0  0  0  0  0  0  0  0
   27.4090   15.2910   10.4470 C   0  0  0  0  0  0  0  0  0  0  0  0
   28.9400   11.0700    7.9400 C   0  0  0  0  0  0  0  0  0  0  0  0
   27.8980   10.6700    7.2420 N   0  0  0  0  0  0  0  0  0  0  0  0
   24.8497    9.5640    8.8806 H   0  0  0  0  0  0  0  0  0  0  0  0
   23.8507    9.4948    7.3893 H   0  0  0  0  0  0  0  0  0  0  0  0
   25.5127    8.8135    7.3893 H   0  0  0  0  0  0  0  0  0  0  0  0
   25.4571   10.9984    6.2500 H   0  0  0  0  0  0  0  0  0  0  0  0
   24.7638   11.7468    7.7527 H   0  0  0  0  0  0  0  0  0  0  0  0
   26.5487   12.5275    9.6601 H   0  0  0  0  0  0  0  0  0  0  0  0
   28.0599   14.2698    7.2497 H   0  0  0  0  0  0  0  0  0  0  0  0
   25.7678   15.2359    6.8798 H   0  0  0  0  0  0  0  0  0  0  0  0
   23.6957   16.4961    8.3069 H   0  0  0  0  0  0  0  0  0  0  0  0
   25.6661   18.7205   12.0157 H   0  0  0  0  0  0  0  0  0  0  0  0
   24.3820   18.4216   14.5326 H   0  0  0  0  0  0  0  0  0  0  0  0
   26.1773   16.8629   15.1193 H   0  0  0  0  0  0  0  0  0  0  0  0
   27.4135   18.0850   14.6641 H   0  0  0  0  0  0  0  0  0  0  0  0
   25.3129   18.3329   16.8721 H   0  0  0  0  0  0  0  0  0  0  0  0
   27.0981   18.1153   17.0754 H   0  0  0  0  0  0  0  0  0  0  0  0
   25.8985   21.7174   15.3717 H   0  0  0  0  0  0  0  0  0  0  0  0
   27.8701   15.3043   11.4456 H   0  0  0  0  0  0  0  0  0  0  0  0
   29.9870   10.8456    7.6880 H   0  0  0  0  0  0  0  0  0  0  0  0
  1  2  1  0
  2  3  1  0
  3  4  2  0
  4  5  1  0
  5  6  1  0
  6  7  2  0
  6  8  2  0
  6  9  1  0
  9 10  1  0
 10 11  2  0
 11 12  1  0
 12 13  2  0
 13 14  1  0
 14 15  1  0
 15 16  2  0
 16 17  1  0
 17 18  2  0
 17 19  1  0
 19 20  1  0
 20 21  1  0
 21 22  1  0
 22 23  1  0
 23 24  2  0
 23 25  1  0
 25 26  1  0
 26 27  2  0
 16 28  1  0
 28 29  2  0
  5 30  1  0
 30 31  2  0
 31  3  1  0
 29 10  1  0
 28 13  1  0
 26 20  1  0
  1 32  1  0
  1 33  1  0
  1 34  1  0
  2 35  1  0
  2 36  1  0
  4 37  1  0
 11 38  1  0
 12 39  1  0
 14 40  1  0
 19 41  1  0
 20 42  1  1
 21 43  1  0
 21 44  1  0
 22 45  1  0
 22 46  1  0
 25 47  1  0
 29 48  1  0
 30 49  1  0
M  END
>  <meeko>  (722) 
{"is_sidechain": [true], "free_energy": -11.66, "intermolecular_energy": 0.0, "internal_energy": -11.66, "cluster_size": 15, "cluster_id": 1, "rank_in_cluster": 1}

>  <_RMSD_MCS_to_ref>  (722) 
0.8036358351613964

$$$$
ligand
     RDKit          3D

 61 65  0  0  0  0  0  0  0  0999 V2000
   24.8540    9.4020    7.6050 C   0  0  0  0  0  0  0  0  0  0  0  0
   25.5230   10.7550    7.4270 C   0  0  0  0  0  0  0  0  0  0  0  0
   26.8730   10.6380    6.8100 C   0  0  0  0  0  0  0  0  0  0  0  0
   27.3220   11.1360    5.6030 C   0  0  0  0  0  0  0  0  0  0  0  0
   28.6180   10.7150    5.5290 N   0  0  0  0  0  0  0  0  0  0  0  0
   29.7450   11.1950    4.3790 S   0  0  0  0  0  6  0  0  0  0  0  0
   31.0450   10.9990    4.9900 O   0  0  0  0  0  0  0  0  0  0  0  0
   29.3600   10.5370    3.1450 O   0  0  0  0  0  0  0  0  0  0  0  0
   29.4520   12.9330    4.2080 C   0  0  0  0  0  0  0  0  0  0  0  0
   29.7640   13.5750    3.0040 C   0  0  0  0  0  0  0  0  0  0  0  0
   29.5330   14.9460    2.8780 C   0  0  0  0  0  0  0  0  0  0  0  0
   28.9870   15.6610    3.9440 C   0  0  0  0  0  0  0  0  0  0  0  0
   28.6380   15.0030    5.1290 C   0  0  0  0  0  0  0  0  0  0  0  0
   28.8800   13.6390    5.2700 C   0  0  0  0  0  0  0  0  0  0  0  0
   28.0590   15.6370    6.1960 O   0  0  0  0  0  0  0  0  0  0  0  0
   27.5660   16.9380    5.8420 C   0  0  1  0  0  0  0  0  0  0  0  0
   27.2400   17.7210    7.1200 C   0  0  0  0  0  0  0  0  0  0  0  0
   27.0800   18.9390    7.1090 O   0  0  0  0  0  0  0  0  0  0  0  0
   27.0930   16.8850    8.2170 N   0  0  0  0  0  0  0  0  0  0  0  0
   26.7550   17.2350    9.5370 C   0  0  0  0  0  0  0  0  0  0  0  0
   27.4160   18.2130   10.2800 C   0  0  0  0  0  0  0  0  0  0  0  0
   27.0190   18.4990   11.5920 C   0  0  0  0  0  0  0  0  0  0  0  0
   25.9510   17.8140   12.1880 C   0  0  0  0  0  0  0  0  0  0  0  0
   25.5230   18.1660   13.6030 C   0  0  1  0  0  0  0  0  0  0  0  0
   26.2990   17.3150   14.6130 C   0  0  0  0  0  0  0  0  0  0  0  0
   25.8210   17.6220   16.0230 C   0  0  0  0  0  0  0  0  0  0  0  0
   25.9600   19.0910   16.3340 C   0  0  0  0  0  0  0  0  0  0  0  0
   26.0930   19.5100   17.4800 O   0  0  0  0  0  0  0  0  0  0  0  0
   25.8660   19.9520   15.2720 N   0  0  0  0  0  0  0  0  0  0  0  0
   25.6640   19.6510   13.9430 C   0  0  0  0  0  0  0  0  0  0  0  0
   25.5550   20.5600   13.1240 O   0  0  0  0  0  0  0  0  0  0  0  0
   25.2820   16.8410   11.4340 C   0  0  0  0  0  0  0  0  0  0  0  0
   25.6840   16.5550   10.1250 C   0  0  0  0  0  0  0  0  0  0  0  0
   28.5810   17.6900    4.9940 C   0  0  0  0  0  0  0  0  0  0  0  0
   28.8080   17.0050    3.7520 O   0  0  0  0  0  0  0  0  0  0  0  0
   28.9340   10.0420    6.6650 C   0  0  0  0  0  0  0  0  0  0  0  0
   27.8890    9.9670    7.4620 N   0  0  0  0  0  0  0  0  0  0  0  0
   24.7464    9.1845    8.6779 H   0  0  0  0  0  0  0  0  0  0  0  0
   23.8606    9.4192    7.1330 H   0  0  0  0  0  0  0  0  0  0  0  0
   25.4708    8.6230    7.1330 H   0  0  0  0  0  0  0  0  0  0  0  0
   24.8907   11.3804    6.7797 H   0  0  0  0  0  0  0  0  0  0  0  0
   25.6449   11.2052    8.4232 H   0  0  0  0  0  0  0  0  0  0  0  0
   26.7630   11.7350    4.8690 H   0  0  0  0  0  0  0  0  0  0  0  0
   30.1875   13.0043    2.1644 H   0  0  0  0  0  0  0  0  0  0  0  0
   29.7814   15.4620    1.9388 H   0  0  0  0  0  0  0  0  0  0  0  0
   28.6238   13.1228    6.2069 H   0  0  0  0  0  0  0  0  0  0  0  0
   26.6506   16.8250    5.2427 H   0  0  0  0  0  0  0  0  0  0  0  0
   27.2511   15.8821    8.0434 H   0  0  0  0  0  0  0  0  0  0  0  0
   28.2559   18.7640    9.8317 H   0  0  0  0  0  0  0  0  0  0  0  0
   27.5530   19.2725   12.1634 H   0  0  0  0  0  0  0  0  0  0  0  0
   24.4478   17.9420   13.6635 H   0  0  0  0  0  0  0  0  0  0  0  0
   26.1336   16.2495   14.3956 H   0  0  0  0  0  0  0  0  0  0  0  0
   27.3712   17.5481   14.5351 H   0  0  0  0  0  0  0  0  0  0  0  0
   24.7635   17.3335   16.1149 H   0  0  0  0  0  0  0  0  0  0  0  0
   26.4392   17.0538   16.7336 H   0  0  0  0  0  0  0  0  0  0  0  0
   25.9583   20.9530   15.4964 H   0  0  0  0  0  0  0  0  0  0  0  0
   24.4335   16.2974   11.8750 H   0  0  0  0  0  0  0  0  0  0  0  0
   25.1499   15.7842    9.5500 H   0  0  0  0  0  0  0  0  0  0  0  0
   28.1999   18.7005    4.7852 H   0  0  0  0  0  0  0  0  0  0  0  0
   29.5308   17.7483    5.5458 H   0  0  0  0  0  0  0  0  0  0  0  0
   29.9245    9.6187    6.8881 H   0  0  0  0  0  0  0  0  0  0  0  0
  1  2  1  0
  2  3  1  0
  3  4  2  0
  4  5  1  0
  5  6  1  0
  6  7  2  0
  6  8  2  0
  6  9  1  0
  9 10  2  0
 10 11  1  0
 11 12  2  0
 12 13  1  0
 13 14  2  0
 13 15  1  0
 15 16  1  0
 16 17  1  0
 17 18  2  0
 17 19  1  0
 19 20  1  0
 20 21  2  0
 21 22  1  0
 22 23  2  0
 23 24  1  0
 24 25  1  0
 25 26  1  0
 26 27  1  0
 27 28  2  0
 27 29  1  0
 29 30  1  0
 30 31  2  0
 23 32  1  0
 32 33  2  0
 16 34  1  0
 34 35  1  0
  5 36  1  0
 36 37  2  0
 37  3  1  0
 14  9  1  0
 33 20  1  0
 35 12  1  0
 30 24  1  0
  1 38  1  0
  1 39  1  0
  1 40  1  0
  2 41  1  0
  2 42  1  0
  4 43  1  0
 10 44  1  0
 11 45  1  0
 14 46  1  0
 16 47  1  6
 19 48  1  0
 21 49  1  0
 22 50  1  0
 24 51  1  6
 25 52  1  0
 25 53  1  0
 26 54  1  0
 26 55  1  0
 29 56  1  0
 32 57  1  0
 33 58  1  0
 34 59  1  0
 34 60  1  0
 36 61  1  0
M  END
>  <meeko>  (723) 
{"is_sidechain": [true], "free_energy": -11.65, "intermolecular_energy": 0.0, "internal_energy": -11.65, "cluster_size": 20, "cluster_id": 1, "rank_in_cluster": 1}

>  <_RMSD_MCS_to_ref>  (723) 
1.2192067092991234

$$$$
ligand
     RDKit          3D

 47 50  0  0  0  0  0  0  0  0999 V2000
   24.8710    9.6160    7.7820 C   0  0  0  0  0  0  0  0  0  0  0  0
   25.4240   10.9650    7.3490 C   0  0  0  0  0  0  0  0  0  0  0  0
   26.8150   11.1830    7.8290 C   0  0  0  0  0  0  0  0  0  0  0  0
   27.2530   11.8840    8.9350 C   0  0  0  0  0  0  0  0  0  0  0  0
   28.6110   11.7340    8.9110 N   0  0  0  0  0  0  0  0  0  0  0  0
   29.7100   12.5700    9.8770 S   0  0  0  0  0  6  0  0  0  0  0  0
   30.9970   11.9710    9.5810 O   0  0  0  0  0  0  0  0  0  0  0  0
   29.1420   12.5260   11.2100 O   0  0  0  0  0  0  0  0  0  0  0  0
   29.7030   14.1100    9.3430 O   0  0  0  0  0  0  0  0  0  0  0  0
   28.5400   14.7960    9.1230 C   0  0  0  0  0  0  0  0  0  0  0  0
   27.6960   14.6630    8.0290 C   0  0  0  0  0  0  0  0  0  0  0  0
   26.5570   15.3770    7.8730 N   0  0  0  0  0  0  0  0  0  0  0  0
   26.2460   16.2620    8.8510 C   0  0  0  0  0  0  0  0  0  0  0  0
   27.0140   16.4750    9.9900 C   0  0  0  0  0  0  0  0  0  0  0  0
   26.6480   17.4280   11.0180 C   0  0  0  0  0  0  0  0  0  0  0  0
   25.7370   17.2580   12.0370 C   0  0  0  0  0  0  0  0  0  0  0  0
   25.7660   18.4480   12.7090 N   0  0  0  0  0  0  0  0  0  0  0  0
   25.0140   18.8200   13.8910 C   0  0  1  0  0  0  0  0  0  0  0  0
   25.3750   18.0220   15.1460 C   0  0  0  0  0  0  0  0  0  0  0  0
   26.6700   18.4950   15.7890 C   0  0  0  0  0  0  0  0  0  0  0  0
   26.6780   19.9880   16.0060 C   0  0  0  0  0  0  0  0  0  0  0  0
   27.3110   20.5170   16.9150 O   0  0  0  0  0  0  0  0  0  0  0  0
   25.9560   20.7440   15.1180 N   0  0  0  0  0  0  0  0  0  0  0  0
   25.1060   20.3120   14.1280 C   0  0  0  0  0  0  0  0  0  0  0  0
   24.4520   21.1200   13.4710 O   0  0  0  0  0  0  0  0  0  0  0  0
   26.6440   19.2990   12.1520 N   0  0  0  0  0  0  0  0  0  0  0  0
   27.1920   18.6840   11.1140 N   0  0  0  0  0  0  0  0  0  0  0  0
   28.1850   15.7170   10.1110 C   0  0  0  0  0  0  0  0  0  0  0  0
   28.9620   11.0450    7.7940 C   0  0  0  0  0  0  0  0  0  0  0  0
   27.8900   10.6720    7.1280 N   0  0  0  0  0  0  0  0  0  0  0  0
   24.8497    9.5640    8.8806 H   0  0  0  0  0  0  0  0  0  0  0  0
   23.8507    9.4948    7.3893 H   0  0  0  0  0  0  0  0  0  0  0  0
   25.5127    8.8135    7.3893 H   0  0  0  0  0  0  0  0  0  0  0  0
   25.4167   11.0145    6.2501 H   0  0  0  0  0  0  0  0  0  0  0  0
   24.7885   11.7473    7.7895 H   0  0  0  0  0  0  0  0  0  0  0  0
   26.6472   12.4369    9.6680 H   0  0  0  0  0  0  0  0  0  0  0  0
   27.9675   13.9385    7.2471 H   0  0  0  0  0  0  0  0  0  0  0  0
   25.3243   16.8512    8.7359 H   0  0  0  0  0  0  0  0  0  0  0  0
   25.1271   16.3699   12.2588 H   0  0  0  0  0  0  0  0  0  0  0  0
   23.9671   18.5533   13.6841 H   0  0  0  0  0  0  0  0  0  0  0  0
   24.5598   18.1276   15.8770 H   0  0  0  0  0  0  0  0  0  0  0  0
   25.5169   16.9737   14.8443 H   0  0  0  0  0  0  0  0  0  0  0  0
   26.7882   17.9938   16.7610 H   0  0  0  0  0  0  0  0  0  0  0  0
   27.4987   18.2448   15.1103 H   0  0  0  0  0  0  0  0  0  0  0  0
   26.0645   21.7647   15.2039 H   0  0  0  0  0  0  0  0  0  0  0  0
   28.8308   15.8480   10.9917 H   0  0  0  0  0  0  0  0  0  0  0  0
   29.9967   10.8293    7.4891 H   0  0  0  0  0  0  0  0  0  0  0  0
  1  2  1  0
  2  3  1  0
  3  4  2  0
  4  5  1  0
  5  6  1  0
  6  7  2  0
  6  8  2  0
  6  9  1  0
  9 10  1  0
 10 11  2  0
 11 12  1  0
 12 13  2  0
 13 14  1  0
 14 15  1  0
 15 16  2  0
 16 17  1  0
 17 18  1  0
 18 19  1  0
 19 20  1  0
 20 21  1  0
 21 22  2  0
 21 23  1  0
 23 24  1  0
 24 25  2  0
 17 26  1  0
 26 27  2  0
 14 28  2  0
  5 29  1  0
 29 30  2  0
 30  3  1  0
 28 10  1  0
 27 15  1  0
 24 18  1  0
  1 31  1  0
  1 32  1  0
  1 33  1  0
  2 34  1  0
  2 35  1  0
  4 36  1  0
 11 37  1  0
 13 38  1  0
 16 39  1  0
 18 40  1  6
 19 41  1  0
 19 42  1  0
 20 43  1  0
 20 44  1  0
 23 45  1  0
 28 46  1  0
 29 47  1  0
M  END
>  <meeko>  (724) 
{"is_sidechain": [true], "free_energy": -11.65, "intermolecular_energy": 0.0, "internal_energy": -11.65, "cluster_size": 17, "cluster_id": 1, "rank_in_cluster": 1}

>  <_RMSD_MCS_to_ref>  (724) 
0.8994996139829943

$$$$
ligand
     RDKit          3D

 56 60  0  0  0  0  0  0  0  0999 V2000
   24.8540    9.4020    7.6050 C   0  0  0  0  0  0  0  0  0  0  0  0
   25.5230   10.7550    7.4270 C   0  0  0  0  0  0  0  0  0  0  0  0
   25.3750   11.2750    6.0410 C   0  0  0  0  0  0  0  0  0  0  0  0
   26.1640   12.1860    5.3660 C   0  0  0  0  0  0  0  0  0  0  0  0
   25.5740   12.2930    4.1390 N   0  0  0  0  0  0  0  0  0  0  0  0
   26.0950   13.2930    2.8850 S   0  0  0  0  0  6  0  0  0  0  0  0
   27.5120   12.9830    2.7760 O   0  0  0  0  0  0  0  0  0  0  0  0
   25.2080   13.0390    1.7630 O   0  0  0  0  0  0  0  0  0  0  0  0
   25.9820   14.8480    3.3450 O   0  0  0  0  0  0  0  0  0  0  0  0
   25.7410   15.1670    4.6560 C   0  0  0  0  0  0  0  0  0  0  0  0
   26.7150   15.8950    5.3180 C   0  0  0  0  0  0  0  0  0  0  0  0
   26.5160   16.1970    6.6650 C   0  0  0  0  0  0  0  0  0  0  0  0
   25.3600   15.7630    7.3270 C   0  0  0  0  0  0  0  0  0  0  0  0
   25.1170   16.0580    8.7470 C   0  0  0  0  0  0  0  0  0  0  0  0
   23.9660   15.5540    9.4090 C   0  0  0  0  0  0  0  0  0  0  0  0
   23.7060   15.8190   10.7620 C   0  0  0  0  0  0  0  0  0  0  0  0
   24.6090   16.5960   11.4580 C   0  0  0  0  0  0  0  0  0  0  0  0
   25.7390   17.0940   10.8160 C   0  0  0  0  0  0  0  0  0  0  0  0
   26.0190   16.8460    9.4830 C   0  0  0  0  0  0  0  0  0  0  0  0
   26.5190   17.8610   11.7910 C   0  0  0  0  0  0  0  0  0  0  0  0
   27.6030   18.3670   11.5770 O   0  0  0  0  0  0  0  0  0  0  0  0
   25.8020   17.8480   12.9770 N   0  0  0  0  0  0  0  0  0  0  0  0
   26.3590   18.3480   14.2310 C   0  0  2  0  0  0  0  0  0  0  0  0
   25.9800   17.4320   15.3960 C   0  0  0  0  0  0  0  0  0  0  0  0
   26.6770   17.8970   16.6640 C   0  0  0  0  0  0  0  0  0  0  0  0
   26.3540   19.3390   16.9670 C   0  0  0  0  0  0  0  0  0  0  0  0
   26.2690   19.7680   18.1140 O   0  0  0  0  0  0  0  0  0  0  0  0
   26.1850   20.1690   15.8880 N   0  0  0  0  0  0  0  0  0  0  0  0
   25.9800   19.7970   14.5790 C   0  0  0  0  0  0  0  0  0  0  0  0
   25.5460   20.6140   13.7700 O   0  0  0  0  0  0  0  0  0  0  0  0
   24.5940   17.0340   12.8860 C   0  0  0  0  0  0  0  0  0  0  0  0
   24.4540   15.0330    6.5560 C   0  0  0  0  0  0  0  0  0  0  0  0
   24.6220   14.7200    5.2470 N   0  0  0  0  0  0  0  0  0  0  0  0
   24.4830   11.4850    4.0940 C   0  0  0  0  0  0  0  0  0  0  0  0
   24.3350   10.8470    5.2370 N   0  0  0  0  0  0  0  0  0  0  0  0
   24.7464    9.1845    8.6779 H   0  0  0  0  0  0  0  0  0  0  0  0
   23.8606    9.4192    7.1330 H   0  0  0  0  0  0  0  0  0  0  0  0
   25.4708    8.6230    7.1330 H   0  0  0  0  0  0  0  0  0  0  0  0
   25.0655   11.4714    8.1252 H   0  0  0  0  0  0  0  0  0  0  0  0
   26.5971   10.6307    7.6291 H   0  0  0  0  0  0  0  0  0  0  0  0
   27.0614   12.7059    5.7326 H   0  0  0  0  0  0  0  0  0  0  0  0
   27.6236   16.2271    4.7944 H   0  0  0  0  0  0  0  0  0  0  0  0
   27.2720   16.7800    7.2115 H   0  0  0  0  0  0  0  0  0  0  0  0
   23.2547   14.9353    8.8421 H   0  0  0  0  0  0  0  0  0  0  0  0
   22.8074   15.4185   11.2541 H   0  0  0  0  0  0  0  0  0  0  0  0
   26.9247   17.2553    9.0116 H   0  0  0  0  0  0  0  0  0  0  0  0
   27.4472   18.3466   14.0704 H   0  0  0  0  0  0  0  0  0  0  0  0
   24.8907   17.4631   15.5456 H   0  0  0  0  0  0  0  0  0  0  0  0
   26.2931   16.4029   15.1658 H   0  0  0  0  0  0  0  0  0  0  0  0
   26.3460   17.2707   17.5056 H   0  0  0  0  0  0  0  0  0  0  0  0
   27.7634   17.8070   16.5171 H   0  0  0  0  0  0  0  0  0  0  0  0
   26.2148   21.1808   16.0783 H   0  0  0  0  0  0  0  0  0  0  0  0
   24.6430   16.1717   13.5672 H   0  0  0  0  0  0  0  0  0  0  0  0
   23.6784   17.5730   13.1707 H   0  0  0  0  0  0  0  0  0  0  0  0
   23.5335   14.6850    7.0475 H   0  0  0  0  0  0  0  0  0  0  0  0
   23.8167   11.3784    3.2252 H   0  0  0  0  0  0  0  0  0  0  0  0
  1  2  1  0
  2  3  1  0
  3  4  2  0
  4  5  1  0
  5  6  1  0
  6  7  2  0
  6  8  2  0
  6  9  1  0
  9 10  1  0
 10 11  2  0
 11 12  1  0
 12 13  2  0
 13 14  1  0
 14 15  2  0
 15 16  1  0
 16 17  2  0
 17 18  1  0
 18 19  2  0
 18 20  1  0
 20 21  2  0
 20 22  1  0
 22 23  1  0
 23 24  1  0
 24 25  1  0
 25 26  1  0
 26 27  2  0
 26 28  1  0
 28 29  1  0
 29 30  2  0
 22 31  1  0
 13 32  1  0
 32 33  2  0
  5 34  1  0
 34 35  2  0
 35  3  1  0
 33 10  1  0
 19 14  1  0
 29 23  1  0
 31 17  1  0
  1 36  1  0
  1 37  1  0
  1 38  1  0
  2 39  1  0
  2 40  1  0
  4 41  1  0
 11 42  1  0
 12 43  1  0
 15 44  1  0
 16 45  1  0
 19 46  1  0
 23 47  1  6
 24 48  1  0
 24 49  1  0
 25 50  1  0
 25 51  1  0
 28 52  1  0
 31 53  1  0
 31 54  1  0
 32 55  1  0
 34 56  1  0
M  END
>  <meeko>  (725) 
{"is_sidechain": [true], "free_energy": -11.64, "intermolecular_energy": 0.0, "internal_energy": -11.64, "cluster_size": 20, "cluster_id": 1, "rank_in_cluster": 1}

>  <_RMSD_MCS_to_ref>  (725) 
1.0457498638669656

$$$$
ligand
     RDKit          3D

 55 59  0  0  0  0  0  0  0  0999 V2000
   24.8710    9.6160    7.7820 C   0  0  0  0  0  0  0  0  0  0  0  0
   25.4240   10.9650    7.3490 C   0  0  0  0  0  0  0  0  0  0  0  0
   26.5870   11.3880    8.1780 C   0  0  0  0  0  0  0  0  0  0  0  0
   27.7290   12.0570    7.7870 C   0  0  0  0  0  0  0  0  0  0  0  0
   28.4560   12.1830    8.9370 N   0  0  0  0  0  0  0  0  0  0  0  0
   29.7970   13.1830    9.1370 S   0  0  0  0  0  6  0  0  0  0  0  0
   30.0430   13.2060   10.5670 O   0  0  0  0  0  0  0  0  0  0  0  0
   30.7830   12.6730    8.2030 O   0  0  0  0  0  0  0  0  0  0  0  0
   29.3130   14.6730    8.6700 O   0  0  0  0  0  0  0  0  0  0  0  0
   28.6580   14.7900    7.4730 C   0  0  0  0  0  0  0  0  0  0  0  0
   29.3100   14.4900    6.2850 C   0  0  0  0  0  0  0  0  0  0  0  0
   28.6090   14.6710    5.1110 C   0  0  0  0  0  0  0  0  0  0  0  0
   27.3440   15.1360    5.0880 N   0  0  0  0  0  0  0  0  0  0  0  0
   26.7110   15.4420    6.2630 N   0  0  0  0  0  0  0  0  0  0  0  0
   27.3530   15.2720    7.4390 C   0  0  0  0  0  0  0  0  0  0  0  0
   26.6000   15.6300    8.6410 C   0  0  0  0  0  0  0  0  0  0  0  0
   25.3980   14.9500    8.9590 C   0  0  0  0  0  0  0  0  0  0  0  0
   24.6820   15.2440   10.1230 C   0  0  0  0  0  0  0  0  0  0  0  0
   25.1860   16.2330   10.9430 C   0  0  0  0  0  0  0  0  0  0  0  0
   26.3540   16.9320   10.6500 C   0  0  0  0  0  0  0  0  0  0  0  0
   27.0730   16.6410    9.5010 C   0  0  0  0  0  0  0  0  0  0  0  0
   26.6320   17.9340   11.7210 C   0  0  0  0  0  0  0  0  0  0  0  0
   25.4770   17.7880   12.5990 N   0  0  0  0  0  0  0  0  0  0  0  0
   25.3920   18.3910   13.9230 C   0  0  2  0  0  0  0  0  0  0  0  0
   26.2900   19.6150   14.0660 C   0  0  0  0  0  0  0  0  0  0  0  0
   26.0780   20.2400   15.4360 C   0  0  0  0  0  0  0  0  0  0  0  0
   26.3170   19.2330   16.5380 C   0  0  0  0  0  0  0  0  0  0  0  0
   26.8290   19.5410   17.6090 O   0  0  0  0  0  0  0  0  0  0  0  0
   25.9140   17.9460   16.2880 N   0  0  0  0  0  0  0  0  0  0  0  0
   25.7300   17.3910   15.0430 C   0  0  0  0  0  0  0  0  0  0  0  0
   25.8480   16.1790   14.8790 O   0  0  0  0  0  0  0  0  0  0  0  0
   24.6550   16.7390   12.2120 C   0  0  0  0  0  0  0  0  0  0  0  0
   23.6830   16.2950   12.7910 O   0  0  0  0  0  0  0  0  0  0  0  0
   27.7420   11.6700    9.9710 C   0  0  0  0  0  0  0  0  0  0  0  0
   26.6100   11.1530    9.5390 N   0  0  0  0  0  0  0  0  0  0  0  0
   24.8497    9.5640    8.8806 H   0  0  0  0  0  0  0  0  0  0  0  0
   23.8507    9.4948    7.3893 H   0  0  0  0  0  0  0  0  0  0  0  0
   25.5127    8.8135    7.3893 H   0  0  0  0  0  0  0  0  0  0  0  0
   25.7438   10.8963    6.2987 H   0  0  0  0  0  0  0  0  0  0  0  0
   24.6280   11.7133    7.4767 H   0  0  0  0  0  0  0  0  0  0  0  0
   27.9937   12.4087    6.7789 H   0  0  0  0  0  0  0  0  0  0  0  0
   30.3465   14.1218    6.2799 H   0  0  0  0  0  0  0  0  0  0  0  0
   29.1007   14.4267    4.1578 H   0  0  0  0  0  0  0  0  0  0  0  0
   25.0207   14.1749    8.2758 H   0  0  0  0  0  0  0  0  0  0  0  0
   23.7546   14.7088   10.3751 H   0  0  0  0  0  0  0  0  0  0  0  0
   27.9966   17.1898    9.2648 H   0  0  0  0  0  0  0  0  0  0  0  0
   27.5666   17.6995   12.2516 H   0  0  0  0  0  0  0  0  0  0  0  0
   26.7657   18.9571   11.3396 H   0  0  0  0  0  0  0  0  0  0  0  0
   24.3435   18.7065   14.0282 H   0  0  0  0  0  0  0  0  0  0  0  0
   27.3422   19.3126   13.9595 H   0  0  0  0  0  0  0  0  0  0  0  0
   26.0391   20.3479   13.2851 H   0  0  0  0  0  0  0  0  0  0  0  0
   26.7773   21.0801   15.5595 H   0  0  0  0  0  0  0  0  0  0  0  0
   25.0371   20.5895   15.5026 H   0  0  0  0  0  0  0  0  0  0  0  0
   25.7335   17.3429   17.1032 H   0  0  0  0  0  0  0  0  0  0  0  0
   28.0637   11.6840   11.0228 H   0  0  0  0  0  0  0  0  0  0  0  0
  1  2  1  0
  2  3  1  0
  3  4  2  0
  4  5  1  0
  5  6  1  0
  6  7  2  0
  6  8  2  0
  6  9  1  0
  9 10  1  0
 10 11  2  0
 11 12  1  0
 12 13  2  0
 13 14  1  0
 14 15  2  0
 15 16  1  0
 16 17  2  0
 17 18  1  0
 18 19  2  0
 19 20  1  0
 20 21  2  0
 20 22  1  0
 22 23  1  0
 23 24  1  0
 24 25  1  0
 25 26  1  0
 26 27  1  0
 27 28  2  0
 27 29  1  0
 29 30  1  0
 30 31  2  0
 23 32  1  0
 32 33  2  0
  5 34  1  0
 34 35  2  0
 35  3  1  0
 15 10  1  0
 21 16  1  0
 30 24  1  0
 32 19  1  0
  1 36  1  0
  1 37  1  0
  1 38  1  0
  2 39  1  0
  2 40  1  0
  4 41  1  0
 11 42  1  0
 12 43  1  0
 17 44  1  0
 18 45  1  0
 21 46  1  0
 22 47  1  0
 22 48  1  0
 24 49  1  1
 25 50  1  0
 25 51  1  0
 26 52  1  0
 26 53  1  0
 29 54  1  0
 34 55  1  0
M  END
>  <meeko>  (726) 
{"is_sidechain": [true], "free_energy": -11.64, "intermolecular_energy": 0.0, "internal_energy": -11.64, "cluster_size": 9, "cluster_id": 1, "rank_in_cluster": 1}

>  <_RMSD_MCS_to_ref>  (726) 
1.877751104520063

$$$$
ligand
     RDKit          3D

 59 64  0  0  0  0  0  0  0  0999 V2000
   24.8710    9.6170    7.7820 C   0  0  0  0  0  0  0  0  0  0  0  0
   25.4240   10.9640    7.3490 C   0  0  0  0  0  0  0  0  0  0  0  0
   26.8920   11.0690    7.5700 C   0  0  0  0  0  0  0  0  0  0  0  0
   27.5930   12.0080    8.3010 C   0  0  0  0  0  0  0  0  0  0  0  0
   28.8960   11.6140    8.1920 N   0  0  0  0  0  0  0  0  0  0  0  0
   30.2320   12.5400    8.6410 S   0  0  0  0  0  6  0  0  0  0  0  0
   31.3470   11.9770    7.9020 O   0  0  0  0  0  0  0  0  0  0  0  0
   30.2140   12.5350   10.0920 O   0  0  0  0  0  0  0  0  0  0  0  0
   29.9240   14.0690    8.1340 O   0  0  0  0  0  0  0  0  0  0  0  0
   29.1020   14.2940    7.1090 C   0  0  0  0  0  0  0  0  0  0  0  0
   27.7950   14.7410    7.0380 C   0  0  0  0  0  0  0  0  0  0  0  0
   26.9390   15.1020    8.1560 C   0  0  0  0  0  0  0  0  0  0  0  0
   25.6430   14.5280    8.2360 C   0  0  0  0  0  0  0  0  0  0  0  0
   24.7770   14.8150    9.3000 C   0  0  0  0  0  0  0  0  0  0  0  0
   25.2400   15.6800   10.2690 C   0  0  0  0  0  0  0  0  0  0  0  0
   26.4940   16.2520   10.1950 C   0  0  0  0  0  0  0  0  0  0  0  0
   27.3630   15.9990    9.1480 C   0  0  0  0  0  0  0  0  0  0  0  0
   26.6530   17.1160   11.3630 C   0  0  0  0  0  0  0  0  0  0  0  0
   27.6390   17.7950   11.5770 O   0  0  0  0  0  0  0  0  0  0  0  0
   25.5010   17.0080   12.0930 N   0  0  0  0  0  0  0  0  0  0  0  0
   25.1560   17.8340   13.2400 C   0  0  1  0  0  0  0  0  0  0  0  0
   25.6620   17.2980   14.5750 C   0  0  0  0  0  0  0  0  0  0  0  0
   25.2210   18.2330   15.6920 C   0  0  0  0  0  0  0  0  0  0  0  0
   25.6980   19.6460   15.4450 C   0  0  0  0  0  0  0  0  0  0  0  0
   25.9420   20.4250   16.3610 O   0  0  0  0  0  0  0  0  0  0  0  0
   25.7980   20.0390   14.1350 N   0  0  0  0  0  0  0  0  0  0  0  0
   25.6770   19.2560   13.0080 C   0  0  0  0  0  0  0  0  0  0  0  0
   25.9300   19.7220   11.8980 O   0  0  0  0  0  0  0  0  0  0  0  0
   24.5920   16.1910   11.4740 C   0  0  0  0  0  0  0  0  0  0  0  0
   23.4550   15.9220   11.8110 O   0  0  0  0  0  0  0  0  0  0  0  0
   27.3470   14.7480    5.7380 N   0  0  0  0  0  0  0  0  0  0  0  0
   28.3710   14.3560    5.0100 C   0  0  0  0  0  0  0  0  0  0  0  0
   28.5120   14.1870    3.6040 C   0  0  0  0  0  0  0  0  0  0  0  0
   29.6880   13.7740    3.0930 C   0  0  0  0  0  0  0  0  0  0  0  0
   30.8310   13.4940    3.9470 C   0  0  0  0  0  0  0  0  0  0  0  0
   30.7050   13.6480    5.2760 C   0  0  0  0  0  0  0  0  0  0  0  0
   29.4820   14.0720    5.8000 N   0  0  0  0  0  0  0  0  0  0  0  0
   28.9650   10.5320    7.3740 C   0  0  0  0  0  0  0  0  0  0  0  0
   27.7610   10.1700    6.9840 N   0  0  0  0  0  0  0  0  0  0  0  0
   24.8498    9.5653    8.8806 H   0  0  0  0  0  0  0  0  0  0  0  0
   23.8505    9.4962    7.3895 H   0  0  0  0  0  0  0  0  0  0  0  0
   25.5122    8.8140    7.3895 H   0  0  0  0  0  0  0  0  0  0  0  0
   25.2166   11.1038    6.2778 H   0  0  0  0  0  0  0  0  0  0  0  0
   24.9357   11.7397    7.9572 H   0  0  0  0  0  0  0  0  0  0  0  0
   27.1930   12.8754    8.8466 H   0  0  0  0  0  0  0  0  0  0  0  0
   25.3104   13.8413    7.4436 H   0  0  0  0  0  0  0  0  0  0  0  0
   23.7728   14.3701    9.3594 H   0  0  0  0  0  0  0  0  0  0  0  0
   28.3493   16.4831    9.0955 H   0  0  0  0  0  0  0  0  0  0  0  0
   24.0588   17.8232   13.3177 H   0  0  0  0  0  0  0  0  0  0  0  0
   25.2459   16.2948   14.7497 H   0  0  0  0  0  0  0  0  0  0  0  0
   26.7602   17.2388   14.5560 H   0  0  0  0  0  0  0  0  0  0  0  0
   24.1225   18.2303   15.7489 H   0  0  0  0  0  0  0  0  0  0  0  0
   25.6602   17.8780   16.6360 H   0  0  0  0  0  0  0  0  0  0  0  0
   25.9860   21.0389   13.9745 H   0  0  0  0  0  0  0  0  0  0  0  0
   27.6627   14.3931    2.9361 H   0  0  0  0  0  0  0  0  0  0  0  0
   29.7858   13.6457    2.0049 H   0  0  0  0  0  0  0  0  0  0  0  0
   31.7847   13.1610    3.5116 H   0  0  0  0  0  0  0  0  0  0  0  0
   31.5551   13.4425    5.9432 H   0  0  0  0  0  0  0  0  0  0  0  0
   29.8972   10.0283    7.0785 H   0  0  0  0  0  0  0  0  0  0  0  0
  1  2  1  0
  2  3  1  0
  3  4  2  0
  4  5  1  0
  5  6  1  0
  6  7  2  0
  6  8  2  0
  6  9  1  0
  9 10  1  0
 10 11  2  0
 11 12  1  0
 12 13  2  0
 13 14  1  0
 14 15  2  0
 15 16  1  0
 16 17  2  0
 16 18  1  0
 18 19  2  0
 18 20  1  0
 20 21  1  0
 21 22  1  0
 22 23  1  0
 23 24  1  0
 24 25  2  0
 24 26  1  0
 26 27  1  0
 27 28  2  0
 20 29  1  0
 29 30  2  0
 11 31  1  0
 31 32  2  0
 32 33  1  0
 33 34  2  0
 34 35  1  0
 35 36  2  0
 36 37  1  0
  5 38  1  0
 38 39  2  0
 39  3  1  0
 37 10  1  0
 17 12  1  0
 27 21  1  0
 37 32  1  0
 29 15  1  0
  1 40  1  0
  1 41  1  0
  1 42  1  0
  2 43  1  0
  2 44  1  0
  4 45  1  0
 13 46  1  0
 14 47  1  0
 17 48  1  0
 21 49  1  1
 22 50  1  0
 22 51  1  0
 23 52  1  0
 23 53  1  0
 26 54  1  0
 33 55  1  0
 34 56  1  0
 35 57  1  0
 36 58  1  0
 38 59  1  0
M  END
>  <meeko>  (727) 
{"is_sidechain": [true], "free_energy": -11.64, "intermolecular_energy": 0.0, "internal_energy": -11.64, "cluster_size": 11, "cluster_id": 1, "rank_in_cluster": 1}

>  <_RMSD_MCS_to_ref>  (727) 
1.7174984716150403

$$$$
ligand
     RDKit          3D

 57 61  0  0  0  0  0  0  0  0999 V2000
   24.8540    9.4020    7.6050 C   0  0  0  0  0  0  0  0  0  0  0  0
   25.5230   10.7550    7.4270 C   0  0  0  0  0  0  0  0  0  0  0  0
   25.3980   11.2650    6.0340 C   0  0  0  0  0  0  0  0  0  0  0  0
   26.2020   12.1630    5.3620 C   0  0  0  0  0  0  0  0  0  0  0  0
   25.6450   12.2460    4.1180 N   0  0  0  0  0  0  0  0  0  0  0  0
   26.0750   13.3430    2.9200 S   0  0  0  0  0  6  0  0  0  0  0  0
   25.1330   13.1420    1.8370 O   0  0  0  0  0  0  0  0  0  0  0  0
   27.5060   13.1890    2.7420 O   0  0  0  0  0  0  0  0  0  0  0  0
   25.7590   14.9180    3.6670 C   0  0  0  0  0  0  0  0  0  0  0  0
   25.6710   16.0590    2.8680 C   0  0  0  0  0  0  0  0  0  0  0  0
   25.4190   17.2910    3.4630 C   0  0  0  0  0  0  0  0  0  0  0  0
   25.2480   17.3800    4.8490 C   0  0  0  0  0  0  0  0  0  0  0  0
   25.3210   16.2370    5.6600 C   0  0  0  0  0  0  0  0  0  0  0  0
   25.1420   16.3010    7.1090 C   0  0  0  0  0  0  0  0  0  0  0  0
   25.8800   16.9330    8.0050 N   0  0  0  0  0  0  0  0  0  0  0  0
   25.2590   16.6570    9.1950 C   0  0  0  0  0  0  0  0  0  0  0  0
   25.5740   17.0450   10.5040 C   0  0  0  0  0  0  0  0  0  0  0  0
   24.7340   16.6020   11.5440 C   0  0  0  0  0  0  0  0  0  0  0  0
   25.0030   16.9590   12.9640 C   0  0  0  0  0  0  0  0  0  0  0  0
   24.9080   16.1100   13.8440 O   0  0  0  0  0  0  0  0  0  0  0  0
   25.3220   18.2730   13.2250 N   0  0  0  0  0  0  0  0  0  0  0  0
   25.4560   18.7540   14.5940 C   0  0  1  0  0  0  0  0  0  0  0  0
   26.5740   18.0410   15.3480 C   0  0  0  0  0  0  0  0  0  0  0  0
   26.6840   18.6170   16.7520 C   0  0  0  0  0  0  0  0  0  0  0  0
   26.8940   20.1130   16.7170 C   0  0  0  0  0  0  0  0  0  0  0  0
   27.5660   20.7030   17.5570 O   0  0  0  0  0  0  0  0  0  0  0  0
   26.2650   20.7980   15.7100 N   0  0  0  0  0  0  0  0  0  0  0  0
   25.7590   20.2550   14.5540 C   0  0  0  0  0  0  0  0  0  0  0  0
   25.5530   20.9500   13.5600 O   0  0  0  0  0  0  0  0  0  0  0  0
   23.6250   15.7770   11.2690 C   0  0  0  0  0  0  0  0  0  0  0  0
   23.3020   15.3850    9.9630 C   0  0  0  0  0  0  0  0  0  0  0  0
   24.1520   15.8560    8.9720 C   0  0  0  0  0  0  0  0  0  0  0  0
   24.0680   15.6240    7.6310 O   0  0  0  0  0  0  0  0  0  0  0  0
   25.5740   14.9970    5.0520 C   0  0  0  0  0  0  0  0  0  0  0  0
   24.5310   11.4710    4.0770 C   0  0  0  0  0  0  0  0  0  0  0  0
   24.3580   10.8510    5.2250 N   0  0  0  0  0  0  0  0  0  0  0  0
   24.7464    9.1845    8.6779 H   0  0  0  0  0  0  0  0  0  0  0  0
   23.8606    9.4192    7.1330 H   0  0  0  0  0  0  0  0  0  0  0  0
   25.4708    8.6230    7.1330 H   0  0  0  0  0  0  0  0  0  0  0  0
   25.0523   11.4758    8.1118 H   0  0  0  0  0  0  0  0  0  0  0  0
   26.5938   10.6340    7.6476 H   0  0  0  0  0  0  0  0  0  0  0  0
   27.0890   12.6913    5.7417 H   0  0  0  0  0  0  0  0  0  0  0  0
   25.7997   15.9848    1.7781 H   0  0  0  0  0  0  0  0  0  0  0  0
   25.3540   18.1971    2.8427 H   0  0  0  0  0  0  0  0  0  0  0  0
   25.0536   18.3599    5.3094 H   0  0  0  0  0  0  0  0  0  0  0  0
   26.4504   17.6762   10.7129 H   0  0  0  0  0  0  0  0  0  0  0  0
   25.4680   18.9252   12.4413 H   0  0  0  0  0  0  0  0  0  0  0  0
   24.5138   18.5491   15.1234 H   0  0  0  0  0  0  0  0  0  0  0  0
   26.3481   16.9662   15.4089 H   0  0  0  0  0  0  0  0  0  0  0  0
   27.5260   18.1852   14.8161 H   0  0  0  0  0  0  0  0  0  0  0  0
   25.7573   18.3981   17.3027 H   0  0  0  0  0  0  0  0  0  0  0  0
   27.5504   18.1564   17.2493 H   0  0  0  0  0  0  0  0  0  0  0  0
   26.1620   21.8156   15.8315 H   0  0  0  0  0  0  0  0  0  0  0  0
   22.9957   15.4313   12.1024 H   0  0  0  0  0  0  0  0  0  0  0  0
   22.4341   14.7475    9.7385 H   0  0  0  0  0  0  0  0  0  0  0  0
   25.6269   14.0856    5.6656 H   0  0  0  0  0  0  0  0  0  0  0  0
   23.8660   11.3747    3.2061 H   0  0  0  0  0  0  0  0  0  0  0  0
  1  2  1  0
  2  3  1  0
  3  4  2  0
  4  5  1  0
  5  6  1  0
  6  7  2  0
  6  8  2  0
  6  9  1  0
  9 10  2  0
 10 11  1  0
 11 12  2  0
 12 13  1  0
 13 14  1  0
 14 15  2  0
 15 16  1  0
 16 17  2  0
 17 18  1  0
 18 19  1  0
 19 20  2  0
 19 21  1  0
 21 22  1  0
 22 23  1  0
 23 24  1  0
 24 25  1  0
 25 26  2  0
 25 27  1  0
 27 28  1  0
 28 29  2  0
 18 30  2  0
 30 31  1  0
 31 32  2  0
 32 33  1  0
 13 34  2  0
  5 35  1  0
 35 36  2  0
 36  3  1  0
 34  9  1  0
 33 14  1  0
 32 16  1  0
 28 22  1  0
  1 37  1  0
  1 38  1  0
  1 39  1  0
  2 40  1  0
  2 41  1  0
  4 42  1  0
 10 43  1  0
 11 44  1  0
 12 45  1  0
 17 46  1  0
 21 47  1  0
 22 48  1  1
 23 49  1  0
 23 50  1  0
 24 51  1  0
 24 52  1  0
 27 53  1  0
 30 54  1  0
 31 55  1  0
 34 56  1  0
 35 57  1  0
M  END
>  <meeko>  (728) 
{"is_sidechain": [true], "free_energy": -11.63, "intermolecular_energy": 0.0, "internal_energy": -11.63, "cluster_size": 20, "cluster_id": 1, "rank_in_cluster": 1}

>  <_RMSD_MCS_to_ref>  (728) 
0.6659735563652486

$$$$
ligand
     RDKit          3D

 56 60  0  0  0  0  0  0  0  0999 V2000
   24.8710    9.6160    7.7820 C   0  0  0  0  0  0  0  0  0  0  0  0
   25.4240   10.9650    7.3490 C   0  0  0  0  0  0  0  0  0  0  0  0
   26.5260   11.4310    8.2330 C   0  0  0  0  0  0  0  0  0  0  0  0
   27.4930   12.3850    7.9870 C   0  0  0  0  0  0  0  0  0  0  0  0
   28.2590   12.3870    9.1180 N   0  0  0  0  0  0  0  0  0  0  0  0
   29.4390   13.5330    9.4980 S   0  0  0  0  0  6  0  0  0  0  0  0
   30.4640   13.3480    8.4870 O   0  0  0  0  0  0  0  0  0  0  0  0
   29.7170   13.3230   10.9050 O   0  0  0  0  0  0  0  0  0  0  0  0
   28.7390   14.9910    9.2530 O   0  0  0  0  0  0  0  0  0  0  0  0
   27.9710   15.1560    8.1340 C   0  0  0  0  0  0  0  0  0  0  0  0
   28.5030   14.8290    6.8900 C   0  0  0  0  0  0  0  0  0  0  0  0
   27.7190   15.0100    5.7570 C   0  0  0  0  0  0  0  0  0  0  0  0
   26.4350   15.5040    5.9190 C   0  0  0  0  0  0  0  0  0  0  0  0
   25.8920   15.8130    7.1180 N   0  0  0  0  0  0  0  0  0  0  0  0
   26.6570   15.6280    8.2220 C   0  0  0  0  0  0  0  0  0  0  0  0
   26.0150   15.9800    9.4990 C   0  0  0  0  0  0  0  0  0  0  0  0
   24.7430   15.4560    9.8520 C   0  0  0  0  0  0  0  0  0  0  0  0
   24.1430   15.7300   11.0880 C   0  0  0  0  0  0  0  0  0  0  0  0
   24.8260   16.5390   11.9740 C   0  0  0  0  0  0  0  0  0  0  0  0
   26.0600   17.0780   11.6240 C   0  0  0  0  0  0  0  0  0  0  0  0
   26.6700   16.8280   10.4090 C   0  0  0  0  0  0  0  0  0  0  0  0
   26.5400   17.8880   12.7490 C   0  0  0  0  0  0  0  0  0  0  0  0
   27.5550   18.5560   12.7390 O   0  0  0  0  0  0  0  0  0  0  0  0
   25.6180   17.7340   13.7750 N   0  0  0  0  0  0  0  0  0  0  0  0
   25.6070   18.5260   15.0000 C   0  0  1  0  0  0  0  0  0  0  0  0
   26.5220   17.9800   16.0950 C   0  0  0  0  0  0  0  0  0  0  0  0
   26.3870   18.8420   17.3400 C   0  0  0  0  0  0  0  0  0  0  0  0
   26.6910   20.2910   17.0410 C   0  0  0  0  0  0  0  0  0  0  0  0
   27.0410   21.0800   17.9130 O   0  0  0  0  0  0  0  0  0  0  0  0
   26.4740   20.7130   15.7530 N   0  0  0  0  0  0  0  0  0  0  0  0
   25.9250   20.0000   14.7120 C   0  0  0  0  0  0  0  0  0  0  0  0
   25.6200   20.5690   13.6640 O   0  0  0  0  0  0  0  0  0  0  0  0
   24.4440   16.9880   13.3450 C   0  0  0  0  0  0  0  0  0  0  0  0
   27.7260   11.5200   10.0160 C   0  0  0  0  0  0  0  0  0  0  0  0
   26.6760   10.9090    9.5030 N   0  0  0  0  0  0  0  0  0  0  0  0
   24.8497    9.5640    8.8806 H   0  0  0  0  0  0  0  0  0  0  0  0
   23.8507    9.4948    7.3893 H   0  0  0  0  0  0  0  0  0  0  0  0
   25.5127    8.8135    7.3893 H   0  0  0  0  0  0  0  0  0  0  0  0
   25.8071   10.8775    6.3216 H   0  0  0  0  0  0  0  0  0  0  0  0
   24.6079   11.6999    7.4110 H   0  0  0  0  0  0  0  0  0  0  0  0
   27.6182   13.0028    7.0855 H   0  0  0  0  0  0  0  0  0  0  0  0
   29.5262   14.4342    6.8052 H   0  0  0  0  0  0  0  0  0  0  0  0
   28.1080   14.7672    4.7571 H   0  0  0  0  0  0  0  0  0  0  0  0
   25.8208   15.6537    5.0188 H   0  0  0  0  0  0  0  0  0  0  0  0
   24.2124   14.8151    9.1325 H   0  0  0  0  0  0  0  0  0  0  0  0
   23.1579   15.3133   11.3447 H   0  0  0  0  0  0  0  0  0  0  0  0
   27.6415   17.2803   10.1610 H   0  0  0  0  0  0  0  0  0  0  0  0
   24.5818   18.4506   15.3915 H   0  0  0  0  0  0  0  0  0  0  0  0
   26.2343   16.9451   16.3319 H   0  0  0  0  0  0  0  0  0  0  0  0
   27.5650   17.9981   15.7461 H   0  0  0  0  0  0  0  0  0  0  0  0
   25.3579   18.7631   17.7204 H   0  0  0  0  0  0  0  0  0  0  0  0
   27.1080   18.4839   18.0896 H   0  0  0  0  0  0  0  0  0  0  0  0
   26.7563   21.6804   15.5400 H   0  0  0  0  0  0  0  0  0  0  0  0
   24.2557   16.1290   14.0058 H   0  0  0  0  0  0  0  0  0  0  0  0
   23.5173   17.5801   13.3685 H   0  0  0  0  0  0  0  0  0  0  0  0
   28.1157   11.3506   11.0306 H   0  0  0  0  0  0  0  0  0  0  0  0
  1  2  1  0
  2  3  1  0
  3  4  2  0
  4  5  1  0
  5  6  1  0
  6  7  2  0
  6  8  2  0
  6  9  1  0
  9 10  1  0
 10 11  2  0
 11 12  1  0
 12 13  2  0
 13 14  1  0
 14 15  2  0
 15 16  1  0
 16 17  2  0
 17 18  1  0
 18 19  2  0
 19 20  1  0
 20 21  2  0
 20 22  1  0
 22 23  2  0
 22 24  1  0
 24 25  1  0
 25 26  1  0
 26 27  1  0
 27 28  1  0
 28 29  2  0
 28 30  1  0
 30 31  1  0
 31 32  2  0
 24 33  1  0
  5 34  1  0
 34 35  2  0
 35  3  1  0
 15 10  1  0
 21 16  1  0
 31 25  1  0
 33 19  1  0
  1 36  1  0
  1 37  1  0
  1 38  1  0
  2 39  1  0
  2 40  1  0
  4 41  1  0
 11 42  1  0
 12 43  1  0
 13 44  1  0
 17 45  1  0
 18 46  1  0
 21 47  1  0
 25 48  1  1
 26 49  1  0
 26 50  1  0
 27 51  1  0
 27 52  1  0
 30 53  1  0
 33 54  1  0
 33 55  1  0
 34 56  1  0
M  END
>  <meeko>  (729) 
{"is_sidechain": [true], "free_energy": -11.63, "intermolecular_energy": 0.0, "internal_energy": -11.63, "cluster_size": 9, "cluster_id": 1, "rank_in_cluster": 1}

>  <_RMSD_MCS_to_ref>  (729) 
0.9886984148644903

$$$$
ligand
     RDKit          3D

 53 57  0  0  0  0  0  0  0  0999 V2000
   24.8710    9.6160    7.7820 C   0  0  0  0  0  0  0  0  0  0  0  0
   25.4240   10.9650    7.3490 C   0  0  0  0  0  0  0  0  0  0  0  0
   26.5430   11.4190    8.2170 C   0  0  0  0  0  0  0  0  0  0  0  0
   27.6850   12.1140    7.8690 C   0  0  0  0  0  0  0  0  0  0  0  0
   28.3620   12.2590    9.0450 N   0  0  0  0  0  0  0  0  0  0  0  0
   29.7020   13.2540    9.3070 S   0  0  0  0  0  6  0  0  0  0  0  0
   29.9260   13.1810   10.7380 O   0  0  0  0  0  0  0  0  0  0  0  0
   30.7050   12.7890    8.3660 O   0  0  0  0  0  0  0  0  0  0  0  0
   29.2810   14.7950    8.9430 O   0  0  0  0  0  0  0  0  0  0  0  0
   27.9870   15.2100    9.1440 C   0  0  0  0  0  0  0  0  0  0  0  0
   27.5710   15.5820   10.4220 C   0  0  0  0  0  0  0  0  0  0  0  0
   26.2590   16.0150   10.6320 C   0  0  0  0  0  0  0  0  0  0  0  0
   25.8410   16.4220   11.9630 C   0  0  0  0  0  0  0  0  0  0  0  0
   25.3160   17.6360   12.3440 C   0  0  0  0  0  0  0  0  0  0  0  0
   25.1070   17.5000   13.6880 N   0  0  0  0  0  0  0  0  0  0  0  0
   24.5440   18.4740   14.6020 C   0  0  1  0  0  0  0  0  0  0  0  0
   24.8200   18.1830   16.0780 C   0  0  0  0  0  0  0  0  0  0  0  0
   26.2340   18.5630   16.4980 C   0  0  0  0  0  0  0  0  0  0  0  0
   26.5760   19.9750   16.0930 C   0  0  0  0  0  0  0  0  0  0  0  0
   27.3690   20.6670   16.7260 O   0  0  0  0  0  0  0  0  0  0  0  0
   25.9750   20.4550   14.9570 N   0  0  0  0  0  0  0  0  0  0  0  0
   24.9750   19.8720   14.2160 C   0  0  0  0  0  0  0  0  0  0  0  0
   24.4600   20.4810   13.2790 O   0  0  0  0  0  0  0  0  0  0  0  0
   25.4680   16.2790   14.1140 N   0  0  0  0  0  0  0  0  0  0  0  0
   25.9190   15.6080   13.0640 N   0  0  0  0  0  0  0  0  0  0  0  0
   25.3810   16.0500    9.5380 C   0  0  0  0  0  0  0  0  0  0  0  0
   25.7670   15.6540    8.2640 C   0  0  0  0  0  0  0  0  0  0  0  0
   24.8600   15.7090    7.2750 N   0  0  0  0  0  0  0  0  0  0  0  0
   25.2390   15.3220    6.0370 C   0  0  0  0  0  0  0  0  0  0  0  0
   26.5040   14.8630    5.7310 C   0  0  0  0  0  0  0  0  0  0  0  0
   27.4390   14.8050    6.7560 C   0  0  0  0  0  0  0  0  0  0  0  0
   27.0900   15.2130    8.0580 C   0  0  0  0  0  0  0  0  0  0  0  0
   27.6300   11.7100   10.0490 C   0  0  0  0  0  0  0  0  0  0  0  0
   26.5230   11.1760    9.5770 N   0  0  0  0  0  0  0  0  0  0  0  0
   24.8497    9.5640    8.8806 H   0  0  0  0  0  0  0  0  0  0  0  0
   23.8507    9.4948    7.3893 H   0  0  0  0  0  0  0  0  0  0  0  0
   25.5127    8.8135    7.3893 H   0  0  0  0  0  0  0  0  0  0  0  0
   25.7892   10.8825    6.3147 H   0  0  0  0  0  0  0  0  0  0  0  0
   24.6131   11.7038    7.4300 H   0  0  0  0  0  0  0  0  0  0  0  0
   27.9812   12.4696    6.8711 H   0  0  0  0  0  0  0  0  0  0  0  0
   28.2759   15.5346   11.2651 H   0  0  0  0  0  0  0  0  0  0  0  0
   25.1117   18.5133   11.7126 H   0  0  0  0  0  0  0  0  0  0  0  0
   23.4515   18.3949   14.5005 H   0  0  0  0  0  0  0  0  0  0  0  0
   24.1059   18.7547   16.6889 H   0  0  0  0  0  0  0  0  0  0  0  0
   24.7086   17.0992   16.2293 H   0  0  0  0  0  0  0  0  0  0  0  0
   26.3166   18.4759   17.5914 H   0  0  0  0  0  0  0  0  0  0  0  0
   26.9359   17.8823   15.9941 H   0  0  0  0  0  0  0  0  0  0  0  0
   26.3156   21.3657   14.6171 H   0  0  0  0  0  0  0  0  0  0  0  0
   24.3512   16.4034    9.6949 H   0  0  0  0  0  0  0  0  0  0  0  0
   24.4968   15.3759    5.2269 H   0  0  0  0  0  0  0  0  0  0  0  0
   26.7633   14.5530    4.7079 H   0  0  0  0  0  0  0  0  0  0  0  0
   28.4558   14.4391    6.5503 H   0  0  0  0  0  0  0  0  0  0  0  0
   27.9218   11.7114   11.1096 H   0  0  0  0  0  0  0  0  0  0  0  0
  1  2  1  0
  2  3  1  0
  3  4  2  0
  4  5  1  0
  5  6  1  0
  6  7  2  0
  6  8  2  0
  6  9  1  0
  9 10  1  0
 10 11  2  0
 11 12  1  0
 12 13  1  0
 13 14  2  0
 14 15  1  0
 15 16  1  0
 16 17  1  0
 17 18  1  0
 18 19  1  0
 19 20  2  0
 19 21  1  0
 21 22  1  0
 22 23  2  0
 15 24  1  0
 24 25  2  0
 12 26  2  0
 26 27  1  0
 27 28  2  0
 28 29  1  0
 29 30  2  0
 30 31  1  0
 31 32  2  0
  5 33  1  0
 33 34  2  0
 34  3  1  0
 32 10  1  0
 25 13  1  0
 32 27  1  0
 22 16  1  0
  1 35  1  0
  1 36  1  0
  1 37  1  0
  2 38  1  0
  2 39  1  0
  4 40  1  0
 11 41  1  0
 14 42  1  0
 16 43  1  1
 17 44  1  0
 17 45  1  0
 18 46  1  0
 18 47  1  0
 21 48  1  0
 26 49  1  0
 29 50  1  0
 30 51  1  0
 31 52  1  0
 33 53  1  0
M  END
>  <meeko>  (730) 
{"is_sidechain": [true], "free_energy": -11.63, "intermolecular_energy": 0.0, "internal_energy": -11.63, "cluster_size": 15, "cluster_id": 1, "rank_in_cluster": 1}

>  <_RMSD_MCS_to_ref>  (730) 
0.5666107815580087

$$$$
ligand
     RDKit          3D

 63 68  0  0  0  0  0  0  0  0999 V2000
   24.8540    9.4020    7.6050 C   0  0  0  0  0  0  0  0  0  0  0  0
   25.5230   10.7550    7.4270 C   0  0  0  0  0  0  0  0  0  0  0  0
   25.0200   11.4770    6.2260 C   0  0  0  0  0  0  0  0  0  0  0  0
   25.0150   12.8330    5.9670 C   0  0  0  0  0  0  0  0  0  0  0  0
   24.4260   12.9380    4.7400 N   0  0  0  0  0  0  0  0  0  0  0  0
   24.3410   14.3330    3.8080 S   0  0  0  0  0  6  0  0  0  0  0  0
   25.2270   14.1200    2.6830 O   0  0  0  0  0  0  0  0  0  0  0  0
   22.9270   14.6080    3.6380 O   0  0  0  0  0  0  0  0  0  0  0  0
   25.0360   15.5770    4.8610 C   0  0  0  0  0  0  0  0  0  0  0  0
   24.6950   15.6010    6.2170 C   0  0  0  0  0  0  0  0  0  0  0  0
   25.2340   16.5770    7.0690 C   0  0  0  0  0  0  0  0  0  0  0  0
   24.8830   16.6040    8.4990 C   0  0  0  0  0  0  0  0  0  0  0  0
   23.6760   16.0140    8.9540 C   0  0  0  0  0  0  0  0  0  0  0  0
   23.3170   16.0300   10.3050 C   0  0  0  0  0  0  0  0  0  0  0  0
   24.1860   16.6420   11.1840 C   0  0  0  0  0  0  0  0  0  0  0  0
   25.3770   17.2320   10.7730 C   0  0  0  0  0  0  0  0  0  0  0  0
   25.7380   17.2210    9.4350 C   0  0  0  0  0  0  0  0  0  0  0  0
   26.0840   17.8270   11.9460 C   0  0  0  0  0  0  0  0  0  0  0  0
   25.2310   17.4360   13.0620 N   0  0  0  0  0  0  0  0  0  0  0  0
   25.3560   17.9950   14.4030 C   0  0  1  0  0  0  0  0  0  0  0  0
   26.5420   17.4180   15.1680 C   0  0  0  0  0  0  0  0  0  0  0  0
   26.5530   17.9810   16.5820 C   0  0  0  0  0  0  0  0  0  0  0  0
   26.5690   19.4920   16.5680 C   0  0  0  0  0  0  0  0  0  0  0  0
   27.1810   20.1500   17.4030 O   0  0  0  0  0  0  0  0  0  0  0  0
   25.8440   20.1040   15.5770 N   0  0  0  0  0  0  0  0  0  0  0  0
   25.4720   19.5300   14.3830 C   0  0  0  0  0  0  0  0  0  0  0  0
   25.2660   20.2300   13.3950 O   0  0  0  0  0  0  0  0  0  0  0  0
   24.0690   16.8100   12.6360 C   0  0  0  0  0  0  0  0  0  0  0  0
   23.1190   16.4550   13.3060 O   0  0  0  0  0  0  0  0  0  0  0  0
   26.1160   17.5300    6.5230 C   0  0  0  0  0  0  0  0  0  0  0  0
   26.4510   17.5150    5.1580 C   0  0  0  0  0  0  0  0  0  0  0  0
   27.3410   18.4780    4.6050 N   0  0  0  0  0  0  0  0  0  0  0  0
   28.5780   18.2730    4.0290 C   0  0  0  0  0  0  0  0  0  0  0  0
   29.0520   19.5020    3.6370 C   0  0  0  0  0  0  0  0  0  0  0  0
   28.0450   20.4020    4.0080 C   0  0  0  0  0  0  0  0  0  0  0  0
   27.0100   19.7960    4.5910 N   0  0  0  0  0  0  0  0  0  0  0  0
   25.9000   16.5330    4.3230 C   0  0  0  0  0  0  0  0  0  0  0  0
   24.1450   11.6940    4.2740 C   0  0  0  0  0  0  0  0  0  0  0  0
   24.4820   10.7820    5.1610 N   0  0  0  0  0  0  0  0  0  0  0  0
   24.7464    9.1845    8.6779 H   0  0  0  0  0  0  0  0  0  0  0  0
   23.8606    9.4192    7.1330 H   0  0  0  0  0  0  0  0  0  0  0  0
   25.4708    8.6230    7.1330 H   0  0  0  0  0  0  0  0  0  0  0  0
   25.3244   11.3684    8.3182 H   0  0  0  0  0  0  0  0  0  0  0  0
   26.6011   10.5836    7.2913 H   0  0  0  0  0  0  0  0  0  0  0  0
   25.3982   13.6438    6.6040 H   0  0  0  0  0  0  0  0  0  0  0  0
   23.9993   14.8495    6.6186 H   0  0  0  0  0  0  0  0  0  0  0  0
   23.0064   15.5323    8.2263 H   0  0  0  0  0  0  0  0  0  0  0  0
   22.3790   15.5728   10.6531 H   0  0  0  0  0  0  0  0  0  0  0  0
   26.6789   17.6874    9.1077 H   0  0  0  0  0  0  0  0  0  0  0  0
   27.0958   17.4091   12.0539 H   0  0  0  0  0  0  0  0  0  0  0  0
   26.2281   18.9145   11.8650 H   0  0  0  0  0  0  0  0  0  0  0  0
   24.4294   17.7109   14.9232 H   0  0  0  0  0  0  0  0  0  0  0  0
   26.4539   16.3223   15.2098 H   0  0  0  0  0  0  0  0  0  0  0  0
   27.4770   17.6903   14.6566 H   0  0  0  0  0  0  0  0  0  0  0  0
   25.6530   17.6365   17.1125 H   0  0  0  0  0  0  0  0  0  0  0  0
   27.4620   17.6275   17.0908 H   0  0  0  0  0  0  0  0  0  0  0  0
   25.5527   21.0782   15.7411 H   0  0  0  0  0  0  0  0  0  0  0  0
   26.5507   18.3003    7.1770 H   0  0  0  0  0  0  0  0  0  0  0  0
   29.0891   17.3067    3.9065 H   0  0  0  0  0  0  0  0  0  0  0  0
   30.0082   19.7282    3.1426 H   0  0  0  0  0  0  0  0  0  0  0  0
   28.1015   21.4872    3.8376 H   0  0  0  0  0  0  0  0  0  0  0  0
   26.1466   16.5156    3.2511 H   0  0  0  0  0  0  0  0  0  0  0  0
   23.6981   11.4786    3.2922 H   0  0  0  0  0  0  0  0  0  0  0  0
  1  2  1  0
  2  3  1  0
  3  4  2  0
  4  5  1  0
  5  6  1  0
  6  7  2  0
  6  8  2  0
  6  9  1  0
  9 10  2  0
 10 11  1  0
 11 12  1  0
 12 13  2  0
 13 14  1  0
 14 15  2  0
 15 16  1  0
 16 17  2  0
 16 18  1  0
 18 19  1  0
 19 20  1  0
 20 21  1  0
 21 22  1  0
 22 23  1  0
 23 24  2  0
 23 25  1  0
 25 26  1  0
 26 27  2  0
 19 28  1  0
 28 29  2  0
 11 30  2  0
 30 31  1  0
 31 32  1  0
 32 33  1  0
 33 34  2  0
 34 35  1  0
 35 36  2  0
 31 37  2  0
  5 38  1  0
 38 39  2  0
 39  3  1  0
 37  9  1  0
 17 12  1  0
 26 20  1  0
 36 32  1  0
 28 15  1  0
  1 40  1  0
  1 41  1  0
  1 42  1  0
  2 43  1  0
  2 44  1  0
  4 45  1  0
 10 46  1  0
 13 47  1  0
 14 48  1  0
 17 49  1  0
 18 50  1  0
 18 51  1  0
 20 52  1  1
 21 53  1  0
 21 54  1  0
 22 55  1  0
 22 56  1  0
 25 57  1  0
 30 58  1  0
 33 59  1  0
 34 60  1  0
 35 61  1  0
 37 62  1  0
 38 63  1  0
M  END
>  <meeko>  (731) 
{"is_sidechain": [true], "free_energy": -11.62, "intermolecular_energy": 0.0, "internal_energy": -11.62, "cluster_size": 19, "cluster_id": 1, "rank_in_cluster": 1}

>  <_RMSD_MCS_to_ref>  (731) 
0.6420394588081529

$$$$
ligand
     RDKit          3D

 55 59  0  0  0  0  0  0  0  0999 V2000
   24.8710    9.6160    7.7820 C   0  0  0  0  0  0  0  0  0  0  0  0
   25.4240   10.9650    7.3490 C   0  0  0  0  0  0  0  0  0  0  0  0
   24.9750   11.3450    5.9830 C   0  0  0  0  0  0  0  0  0  0  0  0
   24.2990   12.4800    5.5750 C   0  0  0  0  0  0  0  0  0  0  0  0
   24.1360   12.3030    4.2300 N   0  0  0  0  0  0  0  0  0  0  0  0
   23.3860   13.3920    3.1840 S   0  0  0  0  0  6  0  0  0  0  0  0
   22.0360   13.4860    3.7140 O   0  0  0  0  0  0  0  0  0  0  0  0
   23.6060   12.8840    1.8410 O   0  0  0  0  0  0  0  0  0  0  0  0
   24.0700   14.8490    3.3520 O   0  0  0  0  0  0  0  0  0  0  0  0
   25.0920   15.0080    4.2440 C   0  0  0  0  0  0  0  0  0  0  0  0
   26.3570   14.9010    3.8280 N   0  0  0  0  0  0  0  0  0  0  0  0
   27.3010   15.0070    4.7770 C   0  0  0  0  0  0  0  0  0  0  0  0
   27.0180   15.2050    6.1090 C   0  0  0  0  0  0  0  0  0  0  0  0
   25.6800   15.2920    6.4490 C   0  0  0  0  0  0  0  0  0  0  0  0
   25.2110   15.4980    7.8380 C   0  0  0  0  0  0  0  0  0  0  0  0
   24.0840   14.8030    8.3570 C   0  0  0  0  0  0  0  0  0  0  0  0
   23.6340   14.9990    9.6690 C   0  0  0  0  0  0  0  0  0  0  0  0
   24.3340   15.8910   10.4530 C   0  0  0  0  0  0  0  0  0  0  0  0
   25.4450   16.5840    9.9890 C   0  0  0  0  0  0  0  0  0  0  0  0
   25.8920   16.3970    8.6910 C   0  0  0  0  0  0  0  0  0  0  0  0
   25.9710   17.4800   11.0590 C   0  0  0  0  0  0  0  0  0  0  0  0
   25.1240   17.1480   12.1980 N   0  0  0  0  0  0  0  0  0  0  0  0
   25.1440   17.9530   13.4160 C   0  0  2  0  0  0  0  0  0  0  0  0
   25.8940   19.2760   13.2660 C   0  0  0  0  0  0  0  0  0  0  0  0
   25.8010   20.0580   14.5670 C   0  0  0  0  0  0  0  0  0  0  0  0
   26.3350   19.2530   15.7290 C   0  0  0  0  0  0  0  0  0  0  0  0
   26.7480   19.7820   16.7560 O   0  0  0  0  0  0  0  0  0  0  0  0
   26.2610   17.8870   15.6190 N   0  0  0  0  0  0  0  0  0  0  0  0
   25.6990   17.1490   14.6020 C   0  0  0  0  0  0  0  0  0  0  0  0
   25.5700   15.9310   14.7170 O   0  0  0  0  0  0  0  0  0  0  0  0
   24.0940   16.2910   11.8440 C   0  0  0  0  0  0  0  0  0  0  0  0
   23.1450   15.9290   12.5120 O   0  0  0  0  0  0  0  0  0  0  0  0
   24.7070   15.1740    5.5150 N   0  0  0  0  0  0  0  0  0  0  0  0
   24.6910   11.1200    3.8620 C   0  0  0  0  0  0  0  0  0  0  0  0
   25.2150   10.5120    4.9070 N   0  0  0  0  0  0  0  0  0  0  0  0
   24.8497    9.5640    8.8806 H   0  0  0  0  0  0  0  0  0  0  0  0
   23.8507    9.4948    7.3893 H   0  0  0  0  0  0  0  0  0  0  0  0
   25.5127    8.8135    7.3893 H   0  0  0  0  0  0  0  0  0  0  0  0
   25.0832   11.7321    8.0599 H   0  0  0  0  0  0  0  0  0  0  0  0
   26.5214   10.8909    7.3349 H   0  0  0  0  0  0  0  0  0  0  0  0
   23.9687   13.3294    6.1910 H   0  0  0  0  0  0  0  0  0  0  0  0
   28.3557   14.9316    4.4738 H   0  0  0  0  0  0  0  0  0  0  0  0
   27.8138   15.2896    6.8636 H   0  0  0  0  0  0  0  0  0  0  0  0
   23.5505   14.0913    7.7098 H   0  0  0  0  0  0  0  0  0  0  0  0
   22.7564   14.4622   10.0584 H   0  0  0  0  0  0  0  0  0  0  0  0
   26.7727   16.9454    8.3256 H   0  0  0  0  0  0  0  0  0  0  0  0
   27.0279   17.2636   11.2739 H   0  0  0  0  0  0  0  0  0  0  0  0
   25.9428   18.5461   10.7894 H   0  0  0  0  0  0  0  0  0  0  0  0
   24.0946   18.2144   13.6169 H   0  0  0  0  0  0  0  0  0  0  0  0
   26.9501   19.0751   13.0329 H   0  0  0  0  0  0  0  0  0  0  0  0
   25.4455   19.8630   12.4509 H   0  0  0  0  0  0  0  0  0  0  0  0
   26.3881   20.9834   14.4719 H   0  0  0  0  0  0  0  0  0  0  0  0
   24.7427   20.2876   14.7600 H   0  0  0  0  0  0  0  0  0  0  0  0
   26.6769   17.3481   16.3920 H   0  0  0  0  0  0  0  0  0  0  0  0
   24.7018   10.7245    2.8356 H   0  0  0  0  0  0  0  0  0  0  0  0
  1  2  1  0
  2  3  1  0
  3  4  2  0
  4  5  1  0
  5  6  1  0
  6  7  2  0
  6  8  2  0
  6  9  1  0
  9 10  1  0
 10 11  2  0
 11 12  1  0
 12 13  2  0
 13 14  1  0
 14 15  1  0
 15 16  2  0
 16 17  1  0
 17 18  2  0
 18 19  1  0
 19 20  2  0
 19 21  1  0
 21 22  1  0
 22 23  1  0
 23 24  1  0
 24 25  1  0
 25 26  1  0
 26 27  2  0
 26 28  1  0
 28 29  1  0
 29 30  2  0
 22 31  1  0
 31 32  2  0
 14 33  2  0
  5 34  1  0
 34 35  2  0
 35  3  1  0
 33 10  1  0
 20 15  1  0
 29 23  1  0
 31 18  1  0
  1 36  1  0
  1 37  1  0
  1 38  1  0
  2 39  1  0
  2 40  1  0
  4 41  1  0
 12 42  1  0
 13 43  1  0
 16 44  1  0
 17 45  1  0
 20 46  1  0
 21 47  1  0
 21 48  1  0
 23 49  1  1
 24 50  1  0
 24 51  1  0
 25 52  1  0
 25 53  1  0
 28 54  1  0
 34 55  1  0
M  END
>  <meeko>  (732) 
{"is_sidechain": [true], "free_energy": -11.62, "intermolecular_energy": 0.0, "internal_energy": -11.62, "cluster_size": 13, "cluster_id": 1, "rank_in_cluster": 1}

>  <_RMSD_MCS_to_ref>  (732) 
1.9011308961274933

$$$$
ligand
     RDKit          3D

 56 60  0  0  0  0  0  0  0  0999 V2000
   24.8540    9.4020    7.6050 C   0  0  0  0  0  0  0  0  0  0  0  0
   25.5230   10.7550    7.4270 C   0  0  0  0  0  0  0  0  0  0  0  0
   27.0050   10.6680    7.5360 C   0  0  0  0  0  0  0  0  0  0  0  0
   27.9400   11.6840    7.4980 C   0  0  0  0  0  0  0  0  0  0  0  0
   29.1390   11.0390    7.6180 N   0  0  0  0  0  0  0  0  0  0  0  0
   30.6430   11.7740    7.7680 S   0  0  0  0  0  6  0  0  0  0  0  0
   31.4640   10.8440    8.5290 O   0  0  0  0  0  0  0  0  0  0  0  0
   30.9870   12.1960    6.4220 O   0  0  0  0  0  0  0  0  0  0  0  0
   30.3420   13.2140    8.7530 C   0  0  0  0  0  0  0  0  0  0  0  0
   29.2120   13.9670    8.5470 C   0  0  0  0  0  0  0  0  0  0  0  0
   29.1160   15.1100    9.3150 C   0  0  0  0  0  0  0  0  0  0  0  0
   28.0490   16.0100    9.1610 N   0  0  0  0  0  0  0  0  0  0  0  0
   26.6820   15.7320    9.3360 C   0  0  0  0  0  0  0  0  0  0  0  0
   25.9770   15.1100    8.2900 C   0  0  0  0  0  0  0  0  0  0  0  0
   24.5950   14.8550    8.3780 C   0  0  0  0  0  0  0  0  0  0  0  0
   23.8840   15.2130    9.5200 C   0  0  0  0  0  0  0  0  0  0  0  0
   24.6030   15.7630   10.5640 C   0  0  0  0  0  0  0  0  0  0  0  0
   25.9810   15.9800   10.5080 C   0  0  0  0  0  0  0  0  0  0  0  0
   26.4480   16.4830   11.8320 C   0  0  0  0  0  0  0  0  0  0  0  0
   25.2100   16.7450   12.5530 N   0  0  0  0  0  0  0  0  0  0  0  0
   25.0960   17.8660   13.4880 C   0  0  1  0  0  0  0  0  0  0  0  0
   25.6110   17.4930   14.8740 C   0  0  0  0  0  0  0  0  0  0  0  0
   25.5180   18.7000   15.7930 C   0  0  0  0  0  0  0  0  0  0  0  0
   26.3190   19.8510   15.2350 C   0  0  0  0  0  0  0  0  0  0  0  0
   26.9840   20.5940   15.9490 O   0  0  0  0  0  0  0  0  0  0  0  0
   26.2480   20.0330   13.8760 N   0  0  0  0  0  0  0  0  0  0  0  0
   25.8760   19.0880   12.9490 C   0  0  0  0  0  0  0  0  0  0  0  0
   26.1850   19.2280   11.7640 O   0  0  0  0  0  0  0  0  0  0  0  0
   24.1030   16.3160   11.8280 C   0  0  0  0  0  0  0  0  0  0  0  0
   22.9290   16.4330   12.1220 O   0  0  0  0  0  0  0  0  0  0  0  0
   30.0360   15.4240   10.2440 N   0  0  0  0  0  0  0  0  0  0  0  0
   31.0830   14.5960   10.3780 C   0  0  0  0  0  0  0  0  0  0  0  0
   31.3030   13.4930    9.6580 N   0  0  0  0  0  0  0  0  0  0  0  0
   28.9150    9.7090    7.7690 C   0  0  0  0  0  0  0  0  0  0  0  0
   27.6260    9.4460    7.7100 N   0  0  0  0  0  0  0  0  0  0  0  0
   24.7464    9.1845    8.6779 H   0  0  0  0  0  0  0  0  0  0  0  0
   23.8606    9.4192    7.1330 H   0  0  0  0  0  0  0  0  0  0  0  0
   25.4708    8.6230    7.1330 H   0  0  0  0  0  0  0  0  0  0  0  0
   25.2634   11.1507    6.4340 H   0  0  0  0  0  0  0  0  0  0  0  0
   25.1637   11.4175    8.2283 H   0  0  0  0  0  0  0  0  0  0  0  0
   27.7607   12.7644    7.3948 H   0  0  0  0  0  0  0  0  0  0  0  0
   28.4375   13.6793    7.8207 H   0  0  0  0  0  0  0  0  0  0  0  0
   28.2933   16.9738    8.8919 H   0  0  0  0  0  0  0  0  0  0  0  0
   26.5193   14.8151    7.3795 H   0  0  0  0  0  0  0  0  0  0  0  0
   24.0741   14.3700    7.5393 H   0  0  0  0  0  0  0  0  0  0  0  0
   22.7962   15.0644    9.5884 H   0  0  0  0  0  0  0  0  0  0  0  0
   27.0515   15.7234   12.3504 H   0  0  0  0  0  0  0  0  0  0  0  0
   27.0917   17.3712   11.7497 H   0  0  0  0  0  0  0  0  0  0  0  0
   24.0298   18.1211   13.5786 H   0  0  0  0  0  0  0  0  0  0  0  0
   25.0017   16.6735   15.2829 H   0  0  0  0  0  0  0  0  0  0  0  0
   26.6598   17.1697   14.7998 H   0  0  0  0  0  0  0  0  0  0  0  0
   24.4649   19.0035   15.8868 H   0  0  0  0  0  0  0  0  0  0  0  0
   25.9233   18.4290   16.7790 H   0  0  0  0  0  0  0  0  0  0  0  0
   26.4970   20.9657   13.5169 H   0  0  0  0  0  0  0  0  0  0  0  0
   31.8259   14.8479   11.1491 H   0  0  0  0  0  0  0  0  0  0  0  0
   29.7015    8.9549    7.9198 H   0  0  0  0  0  0  0  0  0  0  0  0
  1  2  1  0
  2  3  1  0
  3  4  2  0
  4  5  1  0
  5  6  1  0
  6  7  2  0
  6  8  2  0
  6  9  1  0
  9 10  2  0
 10 11  1  0
 11 12  1  0
 12 13  1  0
 13 14  2  0
 14 15  1  0
 15 16  2  0
 16 17  1  0
 17 18  2  0
 18 19  1  0
 19 20  1  0
 20 21  1  0
 21 22  1  0
 22 23  1  0
 23 24  1  0
 24 25  2  0
 24 26  1  0
 26 27  1  0
 27 28  2  0
 20 29  1  0
 29 30  2  0
 11 31  2  0
 31 32  1  0
 32 33  2  0
  5 34  1  0
 34 35  2  0
 35  3  1  0
 33  9  1  0
 18 13  1  0
 27 21  1  0
 29 17  1  0
  1 36  1  0
  1 37  1  0
  1 38  1  0
  2 39  1  0
  2 40  1  0
  4 41  1  0
 10 42  1  0
 12 43  1  0
 14 44  1  0
 15 45  1  0
 16 46  1  0
 19 47  1  0
 19 48  1  0
 21 49  1  1
 22 50  1  0
 22 51  1  0
 23 52  1  0
 23 53  1  0
 26 54  1  0
 32 55  1  0
 34 56  1  0
M  END
>  <meeko>  (733) 
{"is_sidechain": [true], "free_energy": -11.6, "intermolecular_energy": 0.0, "internal_energy": -11.6, "cluster_size": 19, "cluster_id": 1, "rank_in_cluster": 1}

>  <_RMSD_MCS_to_ref>  (733) 
1.6335275054651237

$$$$
ligand
     RDKit          3D

 55 58  0  0  0  0  0  0  0  0999 V2000
   24.8540    9.4020    7.6050 C   0  0  0  0  0  0  0  0  0  0  0  0
   25.5230   10.7550    7.4270 C   0  0  0  0  0  0  0  0  0  0  0  0
   24.9940   11.4940    6.2490 C   0  0  0  0  0  0  0  0  0  0  0  0
   25.3120   12.7620    5.8030 C   0  0  0  0  0  0  0  0  0  0  0  0
   24.5480   12.9240    4.6830 N   0  0  0  0  0  0  0  0  0  0  0  0
   24.3480   14.3560    3.8270 S   0  0  0  0  0  6  0  0  0  0  0  0
   25.2890   14.2920    2.7250 O   0  0  0  0  0  0  0  0  0  0  0  0
   22.9210   14.5030    3.6230 O   0  0  0  0  0  0  0  0  0  0  0  0
   24.8890   15.6000    4.9670 C   0  0  0  0  0  0  0  0  0  0  0  0
   25.5730   16.7210    4.4910 C   0  0  0  0  0  0  0  0  0  0  0  0
   25.9950   17.6970    5.3920 C   0  0  0  0  0  0  0  0  0  0  0  0
   25.7230   17.5570    6.7560 C   0  0  0  0  0  0  0  0  0  0  0  0
   25.0180   16.4410    7.2330 C   0  0  0  0  0  0  0  0  0  0  0  0
   24.7390   16.3080    8.6740 C   0  0  0  0  0  0  0  0  0  0  0  0
   23.6900   15.5630    9.0650 C   0  0  0  0  0  0  0  0  0  0  0  0
   23.3920   15.4170   10.3950 N   0  0  0  0  0  0  0  0  0  0  0  0
   24.1100   15.9970   11.4170 C   0  0  0  0  0  0  0  0  0  0  0  0
   23.7980   15.8240   12.5920 O   0  0  0  0  0  0  0  0  0  0  0  0
   25.2750   16.8370   11.0130 C   0  0  0  0  0  0  0  0  0  0  0  0
   26.1620   17.5470   11.9790 C   0  0  0  0  0  0  0  0  0  0  0  0
   27.2310   18.0470   11.6310 O   0  0  0  0  0  0  0  0  0  0  0  0
   25.7140   17.6150   13.2700 N   0  0  0  0  0  0  0  0  0  0  0  0
   26.4470   18.3170   14.3110 C   0  0  2  0  0  0  0  0  0  0  0  0
   25.9840   17.8930   15.7010 C   0  0  0  0  0  0  0  0  0  0  0  0
   26.7740   18.6520   16.7550 C   0  0  0  0  0  0  0  0  0  0  0  0
   26.6570   20.1450   16.5580 C   0  0  0  0  0  0  0  0  0  0  0  0
   26.6810   20.9360   17.4960 O   0  0  0  0  0  0  0  0  0  0  0  0
   26.5580   20.5880   15.2630 N   0  0  0  0  0  0  0  0  0  0  0  0
   26.2610   19.8300   14.1560 C   0  0  0  0  0  0  0  0  0  0  0  0
   25.8970   20.3650   13.1100 O   0  0  0  0  0  0  0  0  0  0  0  0
   25.5440   16.9570    9.6980 C   0  0  0  0  0  0  0  0  0  0  0  0
   24.6000   15.4570    6.3280 C   0  0  0  0  0  0  0  0  0  0  0  0
   23.7780   11.8200    4.5040 C   0  0  0  0  0  0  0  0  0  0  0  0
   24.0330   10.9240    5.4350 N   0  0  0  0  0  0  0  0  0  0  0  0
   24.7464    9.1845    8.6779 H   0  0  0  0  0  0  0  0  0  0  0  0
   23.8606    9.4192    7.1330 H   0  0  0  0  0  0  0  0  0  0  0  0
   25.4708    8.6230    7.1330 H   0  0  0  0  0  0  0  0  0  0  0  0
   25.3488   11.3577    8.3305 H   0  0  0  0  0  0  0  0  0  0  0  0
   26.5966   10.5813    7.2619 H   0  0  0  0  0  0  0  0  0  0  0  0
   26.0190   13.4775    6.2482 H   0  0  0  0  0  0  0  0  0  0  0  0
   25.7766   16.8324    3.4158 H   0  0  0  0  0  0  0  0  0  0  0  0
   26.5431   18.5790    5.0291 H   0  0  0  0  0  0  0  0  0  0  0  0
   26.0646   18.3284    7.4619 H   0  0  0  0  0  0  0  0  0  0  0  0
   23.0643   15.0654    8.3094 H   0  0  0  0  0  0  0  0  0  0  0  0
   22.5791   14.8364   10.6460 H   0  0  0  0  0  0  0  0  0  0  0  0
   24.8263   17.1526   13.5129 H   0  0  0  0  0  0  0  0  0  0  0  0
   27.5105   18.0576   14.2032 H   0  0  0  0  0  0  0  0  0  0  0  0
   24.9130   18.1170   15.8143 H   0  0  0  0  0  0  0  0  0  0  0  0
   26.1496   16.8129   15.8276 H   0  0  0  0  0  0  0  0  0  0  0  0
   26.3867   18.3904   17.7508 H   0  0  0  0  0  0  0  0  0  0  0  0
   27.8337   18.3714   16.6640 H   0  0  0  0  0  0  0  0  0  0  0  0
   26.7234   21.5922   15.1044 H   0  0  0  0  0  0  0  0  0  0  0  0
   26.4040   17.5683    9.3870 H   0  0  0  0  0  0  0  0  0  0  0  0
   24.0471   14.5760    6.6860 H   0  0  0  0  0  0  0  0  0  0  0  0
   23.0440   11.6919    3.6947 H   0  0  0  0  0  0  0  0  0  0  0  0
  1  2  1  0
  2  3  1  0
  3  4  2  0
  4  5  1  0
  5  6  1  0
  6  7  2  0
  6  8  2  0
  6  9  1  0
  9 10  2  0
 10 11  1  0
 11 12  2  0
 12 13  1  0
 13 14  1  0
 14 15  2  0
 15 16  1  0
 16 17  1  0
 17 18  2  0
 17 19  1  0
 19 20  1  0
 20 21  2  0
 20 22  1  0
 22 23  1  0
 23 24  1  0
 24 25  1  0
 25 26  1  0
 26 27  2  0
 26 28  1  0
 28 29  1  0
 29 30  2  0
 19 31  2  0
 13 32  2  0
  5 33  1  0
 33 34  2  0
 34  3  1  0
 32  9  1  0
 31 14  1  0
 29 23  1  0
  1 35  1  0
  1 36  1  0
  1 37  1  0
  2 38  1  0
  2 39  1  0
  4 40  1  0
 10 41  1  0
 11 42  1  0
 12 43  1  0
 15 44  1  0
 16 45  1  0
 22 46  1  0
 23 47  1  1
 24 48  1  0
 24 49  1  0
 25 50  1  0
 25 51  1  0
 28 52  1  0
 31 53  1  0
 32 54  1  0
 33 55  1  0
M  END
>  <meeko>  (734) 
{"is_sidechain": [true], "free_energy": -11.6, "intermolecular_energy": 0.0, "internal_energy": -11.6, "cluster_size": 8, "cluster_id": 1, "rank_in_cluster": 1}

>  <_RMSD_MCS_to_ref>  (734) 
0.9688478266018395

$$$$
ligand
     RDKit          3D

 56 60  0  0  0  0  0  0  0  0999 V2000
   24.8710    9.6160    7.7820 C   0  0  0  0  0  0  0  0  0  0  0  0
   25.4240   10.9650    7.3490 C   0  0  0  0  0  0  0  0  0  0  0  0
   26.7560   10.8420    6.6980 C   0  0  0  0  0  0  0  0  0  0  0  0
   27.1490   11.2770    5.4470 C   0  0  0  0  0  0  0  0  0  0  0  0
   28.4680   10.9420    5.3730 N   0  0  0  0  0  0  0  0  0  0  0  0
   29.5600   11.4300    4.1980 S   0  0  0  0  0  6  0  0  0  0  0  0
   30.8460   11.4870    4.8690 O   0  0  0  0  0  0  0  0  0  0  0  0
   29.3190   10.6020    3.0310 O   0  0  0  0  0  0  0  0  0  0  0  0
   29.1960   13.0520    3.7050 C   0  0  0  0  0  0  0  0  0  0  0  0
   29.4350   13.5580    2.4750 N   0  0  0  0  0  0  0  0  0  0  0  0
   28.9740   14.8190    2.5540 N   0  0  0  0  0  0  0  0  0  0  0  0
   28.4720   15.1460    3.7800 C   0  0  0  0  0  0  0  0  0  0  0  0
   27.9210   16.2950    4.3080 C   0  0  0  0  0  0  0  0  0  0  0  0
   27.5190   16.2670    5.5960 N   0  0  0  0  0  0  0  0  0  0  0  0
   27.6760   15.1070    6.2910 C   0  0  0  0  0  0  0  0  0  0  0  0
   27.2160   15.1300    7.7330 C   0  0  0  0  0  0  0  0  0  0  0  0
   27.0190   14.0830    8.3420 O   0  0  0  0  0  0  0  0  0  0  0  0
   27.0640   16.4160    8.2310 N   0  0  0  0  0  0  0  0  0  0  0  0
   26.6460   16.8080    9.5160 C   0  0  0  0  0  0  0  0  0  0  0  0
   27.3140   17.8860   10.1060 C   0  0  0  0  0  0  0  0  0  0  0  0
   26.9590   18.3380   11.3810 C   0  0  0  0  0  0  0  0  0  0  0  0
   25.9170   17.7280   12.0900 C   0  0  0  0  0  0  0  0  0  0  0  0
   25.5260   18.1760   13.4890 C   0  0  1  0  0  0  0  0  0  0  0  0
   26.3050   17.3700   14.5320 C   0  0  0  0  0  0  0  0  0  0  0  0
   25.8630   17.7700   15.9300 C   0  0  0  0  0  0  0  0  0  0  0  0
   26.0390   19.2530   16.1500 C   0  0  0  0  0  0  0  0  0  0  0  0
   26.2100   19.7350   17.2650 O   0  0  0  0  0  0  0  0  0  0  0  0
   25.9370   20.0510   15.0400 N   0  0  0  0  0  0  0  0  0  0  0  0
   25.7040   19.6740   13.7350 C   0  0  0  0  0  0  0  0  0  0  0  0
   25.6010   20.5360   12.8660 O   0  0  0  0  0  0  0  0  0  0  0  0
   25.2540   16.6460   11.4960 C   0  0  0  0  0  0  0  0  0  0  0  0
   25.6140   16.1910   10.2220 C   0  0  0  0  0  0  0  0  0  0  0  0
   28.2000   13.9510    5.8400 N   0  0  0  0  0  0  0  0  0  0  0  0
   28.5980   14.0040    4.5540 C   0  0  0  0  0  0  0  0  0  0  0  0
   28.8400   10.3410    6.5340 C   0  0  0  0  0  0  0  0  0  0  0  0
   27.8180   10.2560    7.3600 N   0  0  0  0  0  0  0  0  0  0  0  0
   24.8497    9.5640    8.8806 H   0  0  0  0  0  0  0  0  0  0  0  0
   23.8507    9.4948    7.3893 H   0  0  0  0  0  0  0  0  0  0  0  0
   25.5127    8.8135    7.3893 H   0  0  0  0  0  0  0  0  0  0  0  0
   24.7223   11.4237    6.6368 H   0  0  0  0  0  0  0  0  0  0  0  0
   25.5433   11.5863    8.2488 H   0  0  0  0  0  0  0  0  0  0  0  0
   26.5365   11.7796    4.6840 H   0  0  0  0  0  0  0  0  0  0  0  0
   28.9977   15.4772    1.7621 H   0  0  0  0  0  0  0  0  0  0  0  0
   27.8128   17.2046    3.6990 H   0  0  0  0  0  0  0  0  0  0  0  0
   27.2852   17.1806    7.5772 H   0  0  0  0  0  0  0  0  0  0  0  0
   28.1287   18.3845    9.5604 H   0  0  0  0  0  0  0  0  0  0  0  0
   27.5037   19.1810   11.8312 H   0  0  0  0  0  0  0  0  0  0  0  0
   24.4475   17.9817   13.5845 H   0  0  0  0  0  0  0  0  0  0  0  0
   26.1133   16.2973   14.3817 H   0  0  0  0  0  0  0  0  0  0  0  0
   27.3799   17.5748   14.4194 H   0  0  0  0  0  0  0  0  0  0  0  0
   24.8019   17.5106   16.0597 H   0  0  0  0  0  0  0  0  0  0  0  0
   26.4838   17.2314   16.6611 H   0  0  0  0  0  0  0  0  0  0  0  0
   26.0488   21.0620   15.2021 H   0  0  0  0  0  0  0  0  0  0  0  0
   24.4382   16.1464   12.0390 H   0  0  0  0  0  0  0  0  0  0  0  0
   25.0788   15.3405    9.7746 H   0  0  0  0  0  0  0  0  0  0  0  0
   29.8543    9.9762    6.7532 H   0  0  0  0  0  0  0  0  0  0  0  0
  1  2  1  0
  2  3  1  0
  3  4  2  0
  4  5  1  0
  5  6  1  0
  6  7  2  0
  6  8  2  0
  6  9  1  0
  9 10  2  0
 10 11  1  0
 11 12  1  0
 12 13  2  0
 13 14  1  0
 14 15  2  0
 15 16  1  0
 16 17  2  0
 16 18  1  0
 18 19  1  0
 19 20  2  0
 20 21  1  0
 21 22  2  0
 22 23  1  0
 23 24  1  0
 24 25  1  0
 25 26  1  0
 26 27  2  0
 26 28  1  0
 28 29  1  0
 29 30  2  0
 22 31  1  0
 31 32  2  0
 15 33  1  0
 33 34  2  0
  5 35  1  0
 35 36  2  0
 36  3  1  0
 34  9  1  0
 34 12  1  0
 32 19  1  0
 29 23  1  0
  1 37  1  0
  1 38  1  0
  1 39  1  0
  2 40  1  0
  2 41  1  0
  4 42  1  0
 11 43  1  0
 13 44  1  0
 18 45  1  0
 20 46  1  0
 21 47  1  0
 23 48  1  1
 24 49  1  0
 24 50  1  0
 25 51  1  0
 25 52  1  0
 28 53  1  0
 31 54  1  0
 32 55  1  0
 35 56  1  0
M  END
>  <meeko>  (735) 
{"is_sidechain": [true], "free_energy": -11.6, "intermolecular_energy": 0.0, "internal_energy": -11.6, "cluster_size": 20, "cluster_id": 1, "rank_in_cluster": 1}

>  <_RMSD_MCS_to_ref>  (735) 
1.066716398580241

$$$$
ligand
     RDKit          3D

 57 61  0  0  0  0  0  0  0  0999 V2000
   24.8710    9.6160    7.7820 C   0  0  0  0  0  0  0  0  0  0  0  0
   25.4240   10.9650    7.3490 C   0  0  0  0  0  0  0  0  0  0  0  0
   26.9090   10.9600    7.2570 C   0  0  0  0  0  0  0  0  0  0  0  0
   27.8330   11.5880    8.0700 C   0  0  0  0  0  0  0  0  0  0  0  0
   29.0400   11.2350    7.5390 N   0  0  0  0  0  0  0  0  0  0  0  0
   30.5350   11.8580    7.9800 S   0  0  0  0  0  6  0  0  0  0  0  0
   30.2730   12.7380    9.1030 O   0  0  0  0  0  0  0  0  0  0  0  0
   31.4080   10.7040    8.0680 O   0  0  0  0  0  0  0  0  0  0  0  0
   31.1120   12.8810    6.6460 C   0  0  0  0  0  0  0  0  0  0  0  0
   32.3610   12.6520    6.0510 C   0  0  0  0  0  0  0  0  0  0  0  0
   32.7900   13.4610    4.9980 C   0  0  0  0  0  0  0  0  0  0  0  0
   31.9780   14.4910    4.5330 C   0  0  0  0  0  0  0  0  0  0  0  0
   30.7330   14.7190    5.1200 C   0  0  0  0  0  0  0  0  0  0  0  0
   30.2810   13.9210    6.1850 C   0  0  0  0  0  0  0  0  0  0  0  0
   28.9560   14.2290    6.7580 C   0  0  0  0  0  0  0  0  0  0  0  0
   27.8500   14.0510    6.0100 C   0  0  0  0  0  0  0  0  0  0  0  0
   26.5170   14.3790    6.5900 C   0  0  0  0  0  0  0  0  0  0  0  0
   25.4620   14.2310    5.9890 O   0  0  0  0  0  0  0  0  0  0  0  0
   26.5680   14.8720    7.8980 N   0  0  0  0  0  0  0  0  0  0  0  0
   25.4880   15.2440    8.6290 N   0  0  0  0  0  0  0  0  0  0  0  0
   26.0670   15.6470    9.7820 C   0  0  0  0  0  0  0  0  0  0  0  0
   25.2770   16.1630   10.9200 C   0  0  0  0  0  0  0  0  0  0  0  0
   24.0750   15.9610   11.0670 O   0  0  0  0  0  0  0  0  0  0  0  0
   26.0160   16.9120   11.8150 N   0  0  0  0  0  0  0  0  0  0  0  0
   25.4050   17.6230   12.9200 C   0  0  1  0  0  0  0  0  0  0  0  0
   25.5590   16.8680   14.2370 C   0  0  0  0  0  0  0  0  0  0  0  0
   24.9150   17.6660   15.3600 C   0  0  0  0  0  0  0  0  0  0  0  0
   25.4920   19.0590   15.4440 C   0  0  0  0  0  0  0  0  0  0  0  0
   25.6020   19.6630   16.5060 O   0  0  0  0  0  0  0  0  0  0  0  0
   25.8580   19.6440   14.2580 N   0  0  0  0  0  0  0  0  0  0  0  0
   26.0490   19.0060   13.0560 C   0  0  0  0  0  0  0  0  0  0  0  0
   26.6840   19.5450   12.1510 O   0  0  0  0  0  0  0  0  0  0  0  0
   27.4470   15.5250    9.8030 N   0  0  0  0  0  0  0  0  0  0  0  0
   27.7240   15.0390    8.6240 C   0  0  0  0  0  0  0  0  0  0  0  0
   28.8990   14.7010    8.0540 N   0  0  0  0  0  0  0  0  0  0  0  0
   28.8380   10.4510    6.4480 C   0  0  0  0  0  0  0  0  0  0  0  0
   27.5490   10.2740    6.2430 N   0  0  0  0  0  0  0  0  0  0  0  0
   24.8497    9.5640    8.8806 H   0  0  0  0  0  0  0  0  0  0  0  0
   23.8507    9.4948    7.3893 H   0  0  0  0  0  0  0  0  0  0  0  0
   25.5127    8.8135    7.3893 H   0  0  0  0  0  0  0  0  0  0  0  0
   25.0087   11.2180    6.3623 H   0  0  0  0  0  0  0  0  0  0  0  0
   25.1350   11.7077    8.1072 H   0  0  0  0  0  0  0  0  0  0  0  0
   27.6401   12.2263    8.9449 H   0  0  0  0  0  0  0  0  0  0  0  0
   33.0021   11.8352    6.4141 H   0  0  0  0  0  0  0  0  0  0  0  0
   33.7719   13.2842    4.5347 H   0  0  0  0  0  0  0  0  0  0  0  0
   32.3181   15.1261    3.7017 H   0  0  0  0  0  0  0  0  0  0  0  0
   30.0969   15.5340    4.7444 H   0  0  0  0  0  0  0  0  0  0  0  0
   27.9299   13.6676    4.9821 H   0  0  0  0  0  0  0  0  0  0  0  0
   27.0372   16.9671   11.6926 H   0  0  0  0  0  0  0  0  0  0  0  0
   24.3305   17.7170   12.7042 H   0  0  0  0  0  0  0  0  0  0  0  0
   25.0678   15.8871   14.1564 H   0  0  0  0  0  0  0  0  0  0  0  0
   26.6280   16.7273   14.4549 H   0  0  0  0  0  0  0  0  0  0  0  0
   23.8331   17.7369   15.1744 H   0  0  0  0  0  0  0  0  0  0  0  0
   25.1138   17.1499   16.3109 H   0  0  0  0  0  0  0  0  0  0  0  0
   26.0042   20.6635   14.2699 H   0  0  0  0  0  0  0  0  0  0  0  0
   29.7697   14.7969    8.5958 H   0  0  0  0  0  0  0  0  0  0  0  0
   29.6375   10.0245    5.8243 H   0  0  0  0  0  0  0  0  0  0  0  0
  1  2  1  0
  2  3  1  0
  3  4  2  0
  4  5  1  0
  5  6  1  0
  6  7  2  0
  6  8  2  0
  6  9  1  0
  9 10  2  0
 10 11  1  0
 11 12  2  0
 12 13  1  0
 13 14  2  0
 14 15  1  0
 15 16  2  0
 16 17  1  0
 17 18  2  0
 17 19  1  0
 19 20  1  0
 20 21  2  0
 21 22  1  0
 22 23  2  0
 22 24  1  0
 24 25  1  0
 25 26  1  0
 26 27  1  0
 27 28  1  0
 28 29  2  0
 28 30  1  0
 30 31  1  0
 31 32  2  0
 21 33  1  0
 33 34  2  0
 34 35  1  0
  5 36  1  0
 36 37  2  0
 37  3  1  0
 14  9  1  0
 35 15  1  0
 34 19  1  0
 31 25  1  0
  1 38  1  0
  1 39  1  0
  1 40  1  0
  2 41  1  0
  2 42  1  0
  4 43  1  0
 10 44  1  0
 11 45  1  0
 12 46  1  0
 13 47  1  0
 16 48  1  0
 24 49  1  0
 25 50  1  6
 26 51  1  0
 26 52  1  0
 27 53  1  0
 27 54  1  0
 30 55  1  0
 35 56  1  0
 36 57  1  0
M  END
>  <meeko>  (736) 
{"is_sidechain": [true], "free_energy": -11.6, "intermolecular_energy": 0.0, "internal_energy": -11.6, "cluster_size": 20, "cluster_id": 1, "rank_in_cluster": 1}

>  <_RMSD_MCS_to_ref>  (736) 
1.8630619361088823

$$$$
ligand
     RDKit          3D

 49 52  0  0  0  0  0  0  0  0999 V2000
   24.8710    9.6160    7.7820 C   0  0  0  0  0  0  0  0  0  0  0  0
   25.4240   10.9650    7.3490 C   0  0  0  0  0  0  0  0  0  0  0  0
   26.7970   11.2050    7.8710 C   0  0  0  0  0  0  0  0  0  0  0  0
   27.1890   11.8920    9.0030 C   0  0  0  0  0  0  0  0  0  0  0  0
   28.5490   11.7720    9.0120 N   0  0  0  0  0  0  0  0  0  0  0  0
   29.6050   12.6110   10.0240 S   0  0  0  0  0  6  0  0  0  0  0  0
   30.9300   12.2190    9.5810 O   0  0  0  0  0  0  0  0  0  0  0  0
   29.1390   12.3190   11.3660 O   0  0  0  0  0  0  0  0  0  0  0  0
   29.3730   14.1920    9.6990 O   0  0  0  0  0  0  0  0  0  0  0  0
   28.1200   14.7240    9.4700 C   0  0  0  0  0  0  0  0  0  0  0  0
   27.7320   14.6830    8.0920 C   0  0  0  0  0  0  0  0  0  0  0  0
   26.4930   15.1550    7.6090 C   0  0  0  0  0  0  0  0  0  0  0  0
   25.6620   15.6910    8.6040 C   0  0  0  0  0  0  0  0  0  0  0  0
   24.4250   16.1950    8.4990 N   0  0  0  0  0  0  0  0  0  0  0  0
   24.0850   16.5210    9.7590 N   0  0  0  0  0  0  0  0  0  0  0  0
   25.0730   16.3440   10.6950 C   0  0  0  0  0  0  0  0  0  0  0  0
   24.8570   16.7330   12.0610 C   0  0  0  0  0  0  0  0  0  0  0  0
   23.9520   16.2570   12.7400 O   0  0  0  0  0  0  0  0  0  0  0  0
   25.6800   17.7220   12.5390 N   0  0  0  0  0  0  0  0  0  0  0  0
   25.4740   18.3120   13.8530 C   0  0  1  0  0  0  0  0  0  0  0  0
   26.3150   17.6240   14.9220 C   0  0  0  0  0  0  0  0  0  0  0  0
   26.0990   18.3130   16.2610 C   0  0  0  0  0  0  0  0  0  0  0  0
   26.4020   19.7900   16.1750 C   0  0  0  0  0  0  0  0  0  0  0  0
   26.8530   20.4260   17.1230 O   0  0  0  0  0  0  0  0  0  0  0  0
   26.1140   20.4090   14.9850 N   0  0  0  0  0  0  0  0  0  0  0  0
   25.8570   19.7930   13.7850 C   0  0  0  0  0  0  0  0  0  0  0  0
   25.9080   20.4150   12.7240 O   0  0  0  0  0  0  0  0  0  0  0  0
   26.0930   15.7520    9.9840 C   0  0  0  0  0  0  0  0  0  0  0  0
   27.3080   15.2720   10.4860 C   0  0  0  0  0  0  0  0  0  0  0  0
   28.9460   11.1150    7.8920 C   0  0  0  0  0  0  0  0  0  0  0  0
   27.9010   10.7330    7.1880 N   0  0  0  0  0  0  0  0  0  0  0  0
   24.8497    9.5640    8.8806 H   0  0  0  0  0  0  0  0  0  0  0  0
   23.8507    9.4948    7.3893 H   0  0  0  0  0  0  0  0  0  0  0  0
   25.5127    8.8135    7.3893 H   0  0  0  0  0  0  0  0  0  0  0  0
   25.4520   10.9998    6.2499 H   0  0  0  0  0  0  0  0  0  0  0  0
   24.7664   11.7460    7.7583 H   0  0  0  0  0  0  0  0  0  0  0  0
   26.5517   12.4158    9.7306 H   0  0  0  0  0  0  0  0  0  0  0  0
   28.4420   14.2583    7.3671 H   0  0  0  0  0  0  0  0  0  0  0  0
   26.2049   15.1070    6.5485 H   0  0  0  0  0  0  0  0  0  0  0  0
   23.1503   16.8778   10.0037 H   0  0  0  0  0  0  0  0  0  0  0  0
   26.4606   18.0538   11.9547 H   0  0  0  0  0  0  0  0  0  0  0  0
   24.4164   18.1883   14.1289 H   0  0  0  0  0  0  0  0  0  0  0  0
   26.0155   16.5685   15.0006 H   0  0  0  0  0  0  0  0  0  0  0  0
   27.3782   17.6849   14.6465 H   0  0  0  0  0  0  0  0  0  0  0  0
   25.0509   18.1797   16.5673 H   0  0  0  0  0  0  0  0  0  0  0  0
   26.7807   17.8617   16.9969 H   0  0  0  0  0  0  0  0  0  0  0  0
   26.0880   21.4386   14.9925 H   0  0  0  0  0  0  0  0  0  0  0  0
   27.5960   15.3166   11.5467 H   0  0  0  0  0  0  0  0  0  0  0  0
   29.9933   10.9282    7.6122 H   0  0  0  0  0  0  0  0  0  0  0  0
  1  2  1  0
  2  3  1  0
  3  4  2  0
  4  5  1  0
  5  6  1  0
  6  7  2  0
  6  8  2  0
  6  9  1  0
  9 10  1  0
 10 11  1  0
 11 12  2  0
 12 13  1  0
 13 14  2  0
 14 15  1  0
 15 16  1  0
 16 17  1  0
 17 18  2  0
 17 19  1  0
 19 20  1  0
 20 21  1  0
 21 22  1  0
 22 23  1  0
 23 24  2  0
 23 25  1  0
 25 26  1  0
 26 27  2  0
 16 28  2  0
 28 29  1  0
  5 30  1  0
 30 31  2  0
 31  3  1  0
 29 10  2  0
 28 13  1  0
 26 20  1  0
  1 32  1  0
  1 33  1  0
  1 34  1  0
  2 35  1  0
  2 36  1  0
  4 37  1  0
 11 38  1  0
 12 39  1  0
 15 40  1  0
 19 41  1  0
 20 42  1  1
 21 43  1  0
 21 44  1  0
 22 45  1  0
 22 46  1  0
 25 47  1  0
 29 48  1  0
 30 49  1  0
M  END
>  <meeko>  (737) 
{"is_sidechain": [true], "free_energy": -11.6, "intermolecular_energy": 0.0, "internal_energy": -11.6, "cluster_size": 13, "cluster_id": 1, "rank_in_cluster": 1}

>  <_RMSD_MCS_to_ref>  (737) 
0.919940094668005

$$$$
ligand
     RDKit          3D

 48 51  0  0  0  0  0  0  0  0999 V2000
   24.8710    9.6160    7.7820 C   0  0  0  0  0  0  0  0  0  0  0  0
   25.4240   10.9650    7.3490 C   0  0  0  0  0  0  0  0  0  0  0  0
   26.7980   11.2020    7.8670 C   0  0  0  0  0  0  0  0  0  0  0  0
   27.2150   12.0530    8.8720 C   0  0  0  0  0  0  0  0  0  0  0  0
   28.5620   11.8400    8.9540 N   0  0  0  0  0  0  0  0  0  0  0  0
   29.6530   12.7770    9.8340 S   0  0  0  0  0  6  0  0  0  0  0  0
   29.3080   12.5390   11.2220 O   0  0  0  0  0  0  0  0  0  0  0  0
   30.9540   12.4290    9.2960 O   0  0  0  0  0  0  0  0  0  0  0  0
   29.3160   14.3280    9.4560 O   0  0  0  0  0  0  0  0  0  0  0  0
   28.0460   14.8580    9.4350 C   0  0  0  0  0  0  0  0  0  0  0  0
   27.4400   14.8160    8.1070 C   0  0  0  0  0  0  0  0  0  0  0  0
   26.1990   15.2980    7.9300 C   0  0  0  0  0  0  0  0  0  0  0  0
   25.5030   15.8330    9.0110 N   0  0  0  0  0  0  0  0  0  0  0  0
   24.2560   16.3630    9.0360 N   0  0  0  0  0  0  0  0  0  0  0  0
   23.9840   16.7520   10.2750 N   0  0  0  0  0  0  0  0  0  0  0  0
   25.0710   16.4720   11.0690 C   0  0  0  0  0  0  0  0  0  0  0  0
   25.1090   16.7730   12.4910 C   0  0  0  0  0  0  0  0  0  0  0  0
   24.8890   15.9370   13.3630 O   0  0  0  0  0  0  0  0  0  0  0  0
   25.4040   18.0860   12.7770 N   0  0  0  0  0  0  0  0  0  0  0  0
   25.3500   18.6130   14.1280 C   0  0  1  0  0  0  0  0  0  0  0  0
   26.3550   17.9320   15.0490 C   0  0  0  0  0  0  0  0  0  0  0  0
   26.2660   18.5420   16.4400 C   0  0  0  0  0  0  0  0  0  0  0  0
   26.4700   20.0380   16.3970 C   0  0  0  0  0  0  0  0  0  0  0  0
   27.0130   20.6560   17.3070 O   0  0  0  0  0  0  0  0  0  0  0  0
   25.9820   20.6920   15.2930 N   0  0  0  0  0  0  0  0  0  0  0  0
   25.6440   20.1160   14.0930 C   0  0  0  0  0  0  0  0  0  0  0  0
   25.5700   20.7900   13.0660 O   0  0  0  0  0  0  0  0  0  0  0  0
   26.0500   15.8870   10.2910 C   0  0  0  0  0  0  0  0  0  0  0  0
   27.3690   15.3770   10.4870 C   0  0  0  0  0  0  0  0  0  0  0  0
   28.9350   10.9670    7.9830 C   0  0  0  0  0  0  0  0  0  0  0  0
   27.8810   10.5410    7.3170 N   0  0  0  0  0  0  0  0  0  0  0  0
   24.8497    9.5640    8.8806 H   0  0  0  0  0  0  0  0  0  0  0  0
   23.8507    9.4948    7.3893 H   0  0  0  0  0  0  0  0  0  0  0  0
   25.5127    8.8135    7.3893 H   0  0  0  0  0  0  0  0  0  0  0  0
   25.4487   11.0014    6.2499 H   0  0  0  0  0  0  0  0  0  0  0  0
   24.7685   11.7464    7.7610 H   0  0  0  0  0  0  0  0  0  0  0  0
   26.6025   12.7442    9.4697 H   0  0  0  0  0  0  0  0  0  0  0  0
   27.9961   14.3926    7.2576 H   0  0  0  0  0  0  0  0  0  0  0  0
   25.7336   15.2702    6.9337 H   0  0  0  0  0  0  0  0  0  0  0  0
   25.6719   18.7155   12.0070 H   0  0  0  0  0  0  0  0  0  0  0  0
   24.3423   18.4190   14.5242 H   0  0  0  0  0  0  0  0  0  0  0  0
   26.1299   16.8568   15.1055 H   0  0  0  0  0  0  0  0  0  0  0  0
   27.3706   18.0747   14.6514 H   0  0  0  0  0  0  0  0  0  0  0  0
   25.2732   18.3277   16.8625 H   0  0  0  0  0  0  0  0  0  0  0  0
   27.0576   18.1013   17.0638 H   0  0  0  0  0  0  0  0  0  0  0  0
   25.8576   21.7114   15.3722 H   0  0  0  0  0  0  0  0  0  0  0  0
   27.8318   15.4053   11.4845 H   0  0  0  0  0  0  0  0  0  0  0  0
   29.9714   10.6588    7.7809 H   0  0  0  0  0  0  0  0  0  0  0  0
  1  2  1  0
  2  3  1  0
  3  4  2  0
  4  5  1  0
  5  6  1  0
  6  7  2  0
  6  8  2  0
  6  9  1  0
  9 10  1  0
 10 11  1  0
 11 12  2  0
 12 13  1  0
 13 14  1  0
 14 15  2  0
 15 16  1  0
 16 17  1  0
 17 18  2  0
 17 19  1  0
 19 20  1  0
 20 21  1  0
 21 22  1  0
 22 23  1  0
 23 24  2  0
 23 25  1  0
 25 26  1  0
 26 27  2  0
 16 28  2  0
 28 29  1  0
  5 30  1  0
 30 31  2  0
 31  3  1  0
 29 10  2  0
 28 13  1  0
 26 20  1  0
  1 32  1  0
  1 33  1  0
  1 34  1  0
  2 35  1  0
  2 36  1  0
  4 37  1  0
 11 38  1  0
 12 39  1  0
 19 40  1  0
 20 41  1  1
 21 42  1  0
 21 43  1  0
 22 44  1  0
 22 45  1  0
 25 46  1  0
 29 47  1  0
 30 48  1  0
M  END
>  <meeko>  (738) 
{"is_sidechain": [true], "free_energy": -11.6, "intermolecular_energy": 0.0, "internal_energy": -11.6, "cluster_size": 19, "cluster_id": 1, "rank_in_cluster": 1}

>  <_RMSD_MCS_to_ref>  (738) 
0.7878461496736243

$$$$
ligand
     RDKit          3D

 54 58  0  0  0  0  0  0  0  0999 V2000
   24.8540    9.4020    7.6050 C   0  0  0  0  0  0  0  0  0  0  0  0
   25.5230   10.7550    7.4270 C   0  0  0  0  0  0  0  0  0  0  0  0
   25.0230   11.4750    6.2240 C   0  0  0  0  0  0  0  0  0  0  0  0
   25.3620   12.7370    5.7770 C   0  0  0  0  0  0  0  0  0  0  0  0
   24.5990   12.9140    4.6580 N   0  0  0  0  0  0  0  0  0  0  0  0
   24.5460   14.3110    3.7210 S   0  0  0  0  0  6  0  0  0  0  0  0
   23.2690   14.9430    3.9950 O   0  0  0  0  0  0  0  0  0  0  0  0
   24.9100   13.8660    2.3870 O   0  0  0  0  0  0  0  0  0  0  0  0
   25.8210   15.3950    4.2790 C   0  0  0  0  0  0  0  0  0  0  0  0
   26.8080   15.7920    3.3630 C   0  0  0  0  0  0  0  0  0  0  0  0
   27.8300   16.6500    3.7610 C   0  0  0  0  0  0  0  0  0  0  0  0
   27.8930   17.1320    5.0720 C   0  0  0  0  0  0  0  0  0  0  0  0
   26.8980   16.7270    5.9790 C   0  0  0  0  0  0  0  0  0  0  0  0
   26.7040   17.1470    7.6430 S   0  0  0  0  0  0  0  0  0  0  0  0
   25.3040   16.1700    7.7260 C   0  0  0  0  0  0  0  0  0  0  0  0
   24.5080   15.9820    8.9050 C   0  0  0  0  0  0  0  0  0  0  0  0
   23.4100   15.1710    9.1490 C   0  0  0  0  0  0  0  0  0  0  0  0
   23.0520   15.3490   10.5120 C   0  0  0  0  0  0  0  0  0  0  0  0
   23.9340   16.2700   11.0340 C   0  0  0  0  0  0  0  0  0  0  0  0
   24.0880   16.8190   12.3650 C   0  0  0  0  0  0  0  0  0  0  0  0
   23.3800   16.4940   13.3150 O   0  0  0  0  0  0  0  0  0  0  0  0
   25.1020   17.7510   12.4830 N   0  0  0  0  0  0  0  0  0  0  0  0
   25.6680   18.0790   13.7780 C   0  0  2  0  0  0  0  0  0  0  0  0
   24.6030   18.6190   14.7230 C   0  0  0  0  0  0  0  0  0  0  0  0
   25.2370   18.9500   16.0640 C   0  0  0  0  0  0  0  0  0  0  0  0
   26.3780   19.9270   15.9020 C   0  0  0  0  0  0  0  0  0  0  0  0
   26.6710   20.7430   16.7710 O   0  0  0  0  0  0  0  0  0  0  0  0
   27.1080   19.8320   14.7450 N   0  0  0  0  0  0  0  0  0  0  0  0
   26.7740   19.1320   13.6070 C   0  0  0  0  0  0  0  0  0  0  0  0
   27.3720   19.3420   12.5530 O   0  0  0  0  0  0  0  0  0  0  0  0
   24.8000   16.6630   10.0590 O   0  0  0  0  0  0  0  0  0  0  0  0
   24.9750   15.5700    6.6050 N   0  0  0  0  0  0  0  0  0  0  0  0
   25.8640   15.8670    5.6000 C   0  0  0  0  0  0  0  0  0  0  0  0
   23.8500   11.7980    4.4510 C   0  0  0  0  0  0  0  0  0  0  0  0
   24.0900   10.8940    5.3830 N   0  0  0  0  0  0  0  0  0  0  0  0
   24.7464    9.1845    8.6779 H   0  0  0  0  0  0  0  0  0  0  0  0
   23.8606    9.4192    7.1330 H   0  0  0  0  0  0  0  0  0  0  0  0
   25.4708    8.6230    7.1330 H   0  0  0  0  0  0  0  0  0  0  0  0
   25.3218   11.3696    8.3169 H   0  0  0  0  0  0  0  0  0  0  0  0
   26.6015   10.5839    7.2944 H   0  0  0  0  0  0  0  0  0  0  0  0
   26.0825   13.4397    6.2211 H   0  0  0  0  0  0  0  0  0  0  0  0
   26.7739   15.4239    2.3270 H   0  0  0  0  0  0  0  0  0  0  0  0
   28.5982   16.9527    3.0342 H   0  0  0  0  0  0  0  0  0  0  0  0
   28.7001   17.8104    5.3856 H   0  0  0  0  0  0  0  0  0  0  0  0
   22.9099   14.5131    8.4230 H   0  0  0  0  0  0  0  0  0  0  0  0
   22.2308   14.8491   11.0466 H   0  0  0  0  0  0  0  0  0  0  0  0
   25.4611   18.2196   11.6390 H   0  0  0  0  0  0  0  0  0  0  0  0
   26.0862   17.1586   14.2115 H   0  0  0  0  0  0  0  0  0  0  0  0
   24.1583   19.5286   14.2931 H   0  0  0  0  0  0  0  0  0  0  0  0
   23.8196   17.8600   14.8650 H   0  0  0  0  0  0  0  0  0  0  0  0
   24.4750   19.3939   16.7215 H   0  0  0  0  0  0  0  0  0  0  0  0
   25.6327   18.0214   16.5012 H   0  0  0  0  0  0  0  0  0  0  0  0
   28.0040   20.3396   14.7249 H   0  0  0  0  0  0  0  0  0  0  0  0
   23.1409   11.6663    3.6204 H   0  0  0  0  0  0  0  0  0  0  0  0
  1  2  1  0
  2  3  1  0
  3  4  2  0
  4  5  1  0
  5  6  1  0
  6  7  2  0
  6  8  2  0
  6  9  1  0
  9 10  2  0
 10 11  1  0
 11 12  2  0
 12 13  1  0
 13 14  1  0
 14 15  1  0
 15 16  1  0
 16 17  2  0
 17 18  1  0
 18 19  2  0
 19 20  1  0
 20 21  2  0
 20 22  1  0
 22 23  1  0
 23 24  1  0
 24 25  1  0
 25 26  1  0
 26 27  2  0
 26 28  1  0
 28 29  1  0
 29 30  2  0
 19 31  1  0
 15 32  2  0
 32 33  1  0
  5 34  1  0
 34 35  2  0
 35  3  1  0
 33  9  1  0
 33 13  2  0
 31 16  1  0
 29 23  1  0
  1 36  1  0
  1 37  1  0
  1 38  1  0
  2 39  1  0
  2 40  1  0
  4 41  1  0
 10 42  1  0
 11 43  1  0
 12 44  1  0
 17 45  1  0
 18 46  1  0
 22 47  1  0
 23 48  1  1
 24 49  1  0
 24 50  1  0
 25 51  1  0
 25 52  1  0
 28 53  1  0
 34 54  1  0
M  END
>  <meeko>  (739) 
{"is_sidechain": [true], "free_energy": -11.59, "intermolecular_energy": 0.0, "internal_energy": -11.59, "cluster_size": 13, "cluster_id": 1, "rank_in_cluster": 1}

>  <_RMSD_MCS_to_ref>  (739) 
1.707033456679224

$$$$
ligand
     RDKit          3D

 55 59  0  0  0  0  0  0  0  0999 V2000
   24.8710    9.6160    7.7820 C   0  0  0  0  0  0  0  0  0  0  0  0
   25.4240   10.9650    7.3490 C   0  0  0  0  0  0  0  0  0  0  0  0
   26.9100   10.9580    7.2520 C   0  0  0  0  0  0  0  0  0  0  0  0
   27.7220   11.5400    6.3000 C   0  0  0  0  0  0  0  0  0  0  0  0
   28.9860   11.1890    6.6770 N   0  0  0  0  0  0  0  0  0  0  0  0
   30.4160   11.8070    6.0300 S   0  0  0  0  0  6  0  0  0  0  0  0
   31.4670   11.0110    6.6360 O   0  0  0  0  0  0  0  0  0  0  0  0
   30.1970   11.8080    4.5960 O   0  0  0  0  0  0  0  0  0  0  0  0
   30.5190   13.3420    6.5650 O   0  0  0  0  0  0  0  0  0  0  0  0
   29.5430   13.9260    7.3360 C   0  0  0  0  0  0  0  0  0  0  0  0
   29.9180   14.1710    8.6580 C   0  0  0  0  0  0  0  0  0  0  0  0
   29.0300   14.7620    9.5660 C   0  0  0  0  0  0  0  0  0  0  0  0
   27.7360   15.1120    9.1340 C   0  0  0  0  0  0  0  0  0  0  0  0
   27.3850   14.8560    7.8100 C   0  0  0  0  0  0  0  0  0  0  0  0
   28.2620   14.2650    6.8870 C   0  0  0  0  0  0  0  0  0  0  0  0
   26.0890   15.2850    7.6460 N   0  0  0  0  0  0  0  0  0  0  0  0
   25.5920   15.8080    8.8160 C   0  0  0  0  0  0  0  0  0  0  0  0
   24.3460   16.3500    9.1030 C   0  0  0  0  0  0  0  0  0  0  0  0
   24.0980   16.8030   10.3520 N   0  0  0  0  0  0  0  0  0  0  0  0
   25.0840   16.7130   11.2890 C   0  0  0  0  0  0  0  0  0  0  0  0
   24.7360   17.2310   12.6530 C   0  0  0  0  0  0  0  0  0  0  0  0
   23.5830   17.2410   13.0700 O   0  0  0  0  0  0  0  0  0  0  0  0
   25.8090   17.6970   13.3790 N   0  0  0  0  0  0  0  0  0  0  0  0
   25.6570   18.3860   14.6450 C   0  0  1  0  0  0  0  0  0  0  0  0
   26.5820   17.8180   15.7180 C   0  0  0  0  0  0  0  0  0  0  0  0
   26.3900   18.5880   17.0140 C   0  0  0  0  0  0  0  0  0  0  0  0
   26.6100   20.0680   16.8120 C   0  0  0  0  0  0  0  0  0  0  0  0
   27.0850   20.7890   17.6850 O   0  0  0  0  0  0  0  0  0  0  0  0
   26.2200   20.5880   15.6040 N   0  0  0  0  0  0  0  0  0  0  0  0
   25.9670   19.8760   14.4550 C   0  0  0  0  0  0  0  0  0  0  0  0
   25.9750   20.4310   13.3580 O   0  0  0  0  0  0  0  0  0  0  0  0
   26.3490   16.1830   11.0660 C   0  0  0  0  0  0  0  0  0  0  0  0
   26.6040   15.7140    9.7700 C   0  0  0  0  0  0  0  0  0  0  0  0
   28.9260   10.5040    7.8480 C   0  0  0  0  0  0  0  0  0  0  0  0
   27.6730   10.3220    8.2120 N   0  0  0  0  0  0  0  0  0  0  0  0
   24.8497    9.5640    8.8806 H   0  0  0  0  0  0  0  0  0  0  0  0
   23.8507    9.4948    7.3893 H   0  0  0  0  0  0  0  0  0  0  0  0
   25.5127    8.8135    7.3893 H   0  0  0  0  0  0  0  0  0  0  0  0
   25.0058   11.2199    6.3641 H   0  0  0  0  0  0  0  0  0  0  0  0
   25.1383   11.7072    8.1090 H   0  0  0  0  0  0  0  0  0  0  0  0
   27.4196   12.1481    5.4347 H   0  0  0  0  0  0  0  0  0  0  0  0
   30.9288   13.8951    8.9928 H   0  0  0  0  0  0  0  0  0  0  0  0
   29.3398   14.9506   10.6045 H   0  0  0  0  0  0  0  0  0  0  0  0
   27.9533   14.0753    5.8484 H   0  0  0  0  0  0  0  0  0  0  0  0
   25.5609   15.2228    6.7639 H   0  0  0  0  0  0  0  0  0  0  0  0
   23.5714   16.4098    8.3243 H   0  0  0  0  0  0  0  0  0  0  0  0
   26.7583   17.5500   13.0073 H   0  0  0  0  0  0  0  0  0  0  0  0
   24.6187   18.2450   14.9798 H   0  0  0  0  0  0  0  0  0  0  0  0
   26.3432   16.7570   15.8834 H   0  0  0  0  0  0  0  0  0  0  0  0
   27.6270   17.9123   15.3877 H   0  0  0  0  0  0  0  0  0  0  0  0
   25.3652   18.4248   17.3790 H   0  0  0  0  0  0  0  0  0  0  0  0
   27.1268   18.2247   17.7455 H   0  0  0  0  0  0  0  0  0  0  0  0
   26.1056   21.6103   15.5526 H   0  0  0  0  0  0  0  0  0  0  0  0
   27.1072   16.1343   11.8614 H   0  0  0  0  0  0  0  0  0  0  0  0
   29.8009   10.1506    8.4134 H   0  0  0  0  0  0  0  0  0  0  0  0
  1  2  1  0
  2  3  1  0
  3  4  2  0
  4  5  1  0
  5  6  1  0
  6  7  2  0
  6  8  2  0
  6  9  1  0
  9 10  1  0
 10 11  2  0
 11 12  1  0
 12 13  2  0
 13 14  1  0
 14 15  2  0
 14 16  1  0
 16 17  1  0
 17 18  2  0
 18 19  1  0
 19 20  2  0
 20 21  1  0
 21 22  2  0
 21 23  1  0
 23 24  1  0
 24 25  1  0
 25 26  1  0
 26 27  1  0
 27 28  2  0
 27 29  1  0
 29 30  1  0
 30 31  2  0
 20 32  1  0
 32 33  2  0
  5 34  1  0
 34 35  2  0
 35  3  1  0
 15 10  1  0
 33 17  1  0
 33 13  1  0
 30 24  1  0
  1 36  1  0
  1 37  1  0
  1 38  1  0
  2 39  1  0
  2 40  1  0
  4 41  1  0
 11 42  1  0
 12 43  1  0
 15 44  1  0
 16 45  1  0
 18 46  1  0
 23 47  1  0
 24 48  1  1
 25 49  1  0
 25 50  1  0
 26 51  1  0
 26 52  1  0
 29 53  1  0
 32 54  1  0
 34 55  1  0
M  END
>  <meeko>  (740) 
{"is_sidechain": [true], "free_energy": -11.59, "intermolecular_energy": 0.0, "internal_energy": -11.59, "cluster_size": 20, "cluster_id": 1, "rank_in_cluster": 1}

>  <_RMSD_MCS_to_ref>  (740) 
0.8829134300711485

$$$$
ligand
     RDKit          3D

 64 68  0  0  0  0  0  0  0  0999 V2000
   24.8540    9.4020    7.6050 C   0  0  0  0  0  0  0  0  0  0  0  0
   25.5230   10.7550    7.4270 C   0  0  0  0  0  0  0  0  0  0  0  0
   25.4820   11.2220    6.0140 C   0  0  0  0  0  0  0  0  0  0  0  0
   26.5100   11.7030    5.2280 C   0  0  0  0  0  0  0  0  0  0  0  0
   25.9170   11.9600    4.0240 N   0  0  0  0  0  0  0  0  0  0  0  0
   26.6370   12.7360    2.7200 S   0  0  0  0  0  6  0  0  0  0  0  0
   25.6090   13.5870    2.1540 O   0  0  0  0  0  0  0  0  0  0  0  0
   27.2740   11.6740    1.9650 O   0  0  0  0  0  0  0  0  0  0  0  0
   27.9220   13.7960    3.3560 C   0  0  0  0  0  0  0  0  0  0  0  0
   29.2230   13.7150    2.8390 C   0  0  0  0  0  0  0  0  0  0  0  0
   30.2180   14.5620    3.3210 C   0  0  0  0  0  0  0  0  0  0  0  0
   29.9240   15.4930    4.3110 C   0  0  0  0  0  0  0  0  0  0  0  0
   28.6290   15.5860    4.8400 C   0  0  0  0  0  0  0  0  0  0  0  0
   27.6110   14.7170    4.3850 C   0  0  0  0  0  0  0  0  0  0  0  0
   26.2110   14.8360    4.9610 C   0  0  0  0  0  0  0  0  0  0  0  0
   26.1580   15.4960    6.2740 N   0  0  0  0  0  0  0  0  0  0  0  0
   26.8670   16.8010    6.1930 C   0  0  1  0  0  0  0  0  0  0  0  0
   26.6490   17.6000    7.4980 C   0  0  0  0  0  0  0  0  0  0  0  0
   26.6820   18.8250    7.5190 O   0  0  0  0  0  0  0  0  0  0  0  0
   26.3630   16.7610    8.5610 N   0  0  0  0  0  0  0  0  0  0  0  0
   26.0720   17.1010    9.8920 C   0  0  0  0  0  0  0  0  0  0  0  0
   25.0110   16.5630   10.6190 C   0  0  0  0  0  0  0  0  0  0  0  0
   24.7870   16.9560   11.9440 C   0  0  0  0  0  0  0  0  0  0  0  0
   25.6170   17.8970   12.5680 C   0  0  0  0  0  0  0  0  0  0  0  0
   25.3680   18.2820   14.0170 C   0  0  1  0  0  0  0  0  0  0  0  0
   26.3010   17.4880   14.9370 C   0  0  0  0  0  0  0  0  0  0  0  0
   26.0060   17.8270   16.3880 C   0  0  0  0  0  0  0  0  0  0  0  0
   26.1360   19.3090   16.6360 C   0  0  0  0  0  0  0  0  0  0  0  0
   26.3980   19.7700   17.7430 O   0  0  0  0  0  0  0  0  0  0  0  0
   25.8810   20.1310   15.5670 N   0  0  0  0  0  0  0  0  0  0  0  0
   25.5000   19.7790   14.2920 C   0  0  0  0  0  0  0  0  0  0  0  0
   25.2360   20.6580   13.4750 O   0  0  0  0  0  0  0  0  0  0  0  0
   26.6870   18.4270   11.8360 C   0  0  0  0  0  0  0  0  0  0  0  0
   26.9090   18.0340   10.5120 C   0  0  0  0  0  0  0  0  0  0  0  0
   28.3620   16.5950    5.9330 C   0  0  0  0  0  0  0  0  0  0  0  0
   24.5940   11.6670    4.1050 C   0  0  0  0  0  0  0  0  0  0  0  0
   24.2940   11.2220    5.3080 N   0  0  0  0  0  0  0  0  0  0  0  0
   24.7464    9.1845    8.6779 H   0  0  0  0  0  0  0  0  0  0  0  0
   23.8606    9.4192    7.1330 H   0  0  0  0  0  0  0  0  0  0  0  0
   25.4708    8.6230    7.1330 H   0  0  0  0  0  0  0  0  0  0  0  0
   25.0052   11.4919    8.0586 H   0  0  0  0  0  0  0  0  0  0  0  0
   26.5789   10.6500    7.7171 H   0  0  0  0  0  0  0  0  0  0  0  0
   27.5643   11.8464    5.5069 H   0  0  0  0  0  0  0  0  0  0  0  0
   29.4577   12.9824    2.0527 H   0  0  0  0  0  0  0  0  0  0  0  0
   31.2391   14.4943    2.9174 H   0  0  0  0  0  0  0  0  0  0  0  0
   30.7141   16.1622    4.6823 H   0  0  0  0  0  0  0  0  0  0  0  0
   25.5957   15.4160    4.2574 H   0  0  0  0  0  0  0  0  0  0  0  0
   25.8382   13.8112    5.1049 H   0  0  0  0  0  0  0  0  0  0  0  0
   25.1758   15.6533    6.5413 H   0  0  0  0  0  0  0  0  0  0  0  0
   26.4524   17.3733    5.3501 H   0  0  0  0  0  0  0  0  0  0  0  0
   26.3637   15.7534    8.3474 H   0  0  0  0  0  0  0  0  0  0  0  0
   24.3452   15.8246   10.1483 H   0  0  0  0  0  0  0  0  0  0  0  0
   23.9467   16.5195   12.5037 H   0  0  0  0  0  0  0  0  0  0  0  0
   24.3188   18.0277   14.2282 H   0  0  0  0  0  0  0  0  0  0  0  0
   26.1442   16.4114   14.7746 H   0  0  0  0  0  0  0  0  0  0  0  0
   27.3446   17.7499   14.7084 H   0  0  0  0  0  0  0  0  0  0  0  0
   24.9805   17.5108   16.6296 H   0  0  0  0  0  0  0  0  0  0  0  0
   26.7326   17.3009   17.0246 H   0  0  0  0  0  0  0  0  0  0  0  0
   25.9885   21.1405   15.7410 H   0  0  0  0  0  0  0  0  0  0  0  0
   27.3593   19.1594   12.3068 H   0  0  0  0  0  0  0  0  0  0  0  0
   27.7523   18.4641    9.9517 H   0  0  0  0  0  0  0  0  0  0  0  0
   28.8043   17.5582    5.6388 H   0  0  0  0  0  0  0  0  0  0  0  0
   28.8108   16.2083    6.8598 H   0  0  0  0  0  0  0  0  0  0  0  0
   23.8738   11.7846    3.2819 H   0  0  0  0  0  0  0  0  0  0  0  0
  1  2  1  0
  2  3  1  0
  3  4  2  0
  4  5  1  0
  5  6  1  0
  6  7  2  0
  6  8  2  0
  6  9  1  0
  9 10  2  0
 10 11  1  0
 11 12  2  0
 12 13  1  0
 13 14  2  0
 14 15  1  0
 15 16  1  0
 16 17  1  0
 17 18  1  0
 18 19  2  0
 18 20  1  0
 20 21  1  0
 21 22  2  0
 22 23  1  0
 23 24  2  0
 24 25  1  0
 25 26  1  0
 26 27  1  0
 27 28  1  0
 28 29  2  0
 28 30  1  0
 30 31  1  0
 31 32  2  0
 24 33  1  0
 33 34  2  0
 17 35  1  0
  5 36  1  0
 36 37  2  0
 37  3  1  0
 14  9  1  0
 34 21  1  0
 35 13  1  0
 31 25  1  0
  1 38  1  0
  1 39  1  0
  1 40  1  0
  2 41  1  0
  2 42  1  0
  4 43  1  0
 10 44  1  0
 11 45  1  0
 12 46  1  0
 15 47  1  0
 15 48  1  0
 16 49  1  0
 17 50  1  6
 20 51  1  0
 22 52  1  0
 23 53  1  0
 25 54  1  1
 26 55  1  0
 26 56  1  0
 27 57  1  0
 27 58  1  0
 30 59  1  0
 33 60  1  0
 34 61  1  0
 35 62  1  0
 35 63  1  0
 36 64  1  0
M  END
>  <meeko>  (741) 
{"is_sidechain": [true], "free_energy": -11.58, "intermolecular_energy": 0.0, "internal_energy": -11.58, "cluster_size": 20, "cluster_id": 1, "rank_in_cluster": 1}

>  <_RMSD_MCS_to_ref>  (741) 
0.8940698378762132

$$$$
ligand
     RDKit          3D

 60 65  0  0  0  0  0  0  0  0999 V2000
   24.8710    9.6160    7.7820 C   0  0  0  0  0  0  0  0  0  0  0  0
   25.4240   10.9650    7.3490 C   0  0  0  0  0  0  0  0  0  0  0  0
   26.7770   11.2280    7.9140 C   0  0  0  0  0  0  0  0  0  0  0  0
   27.1800   12.2350    8.7700 C   0  0  0  0  0  0  0  0  0  0  0  0
   28.5030   11.9800    8.9890 N   0  0  0  0  0  0  0  0  0  0  0  0
   29.5890   12.9620    9.8260 S   0  0  0  0  0  6  0  0  0  0  0  0
   29.2750   12.7640   11.2290 O   0  0  0  0  0  0  0  0  0  0  0  0
   30.8860   12.5830    9.2960 O   0  0  0  0  0  0  0  0  0  0  0  0
   29.3020   14.5100    9.3790 O   0  0  0  0  0  0  0  0  0  0  0  0
   28.7900   14.7850    8.1320 C   0  0  0  0  0  0  0  0  0  0  0  0
   29.5460   14.4140    7.0100 C   0  0  0  0  0  0  0  0  0  0  0  0
   28.9970   14.6700    5.7510 C   0  0  0  0  0  0  0  0  0  0  0  0
   29.5080   14.4380    4.4930 N   0  0  0  0  0  0  0  0  0  0  0  0
   28.6150   14.8480    3.5390 C   0  0  0  0  0  0  0  0  0  0  0  0
   27.5080   15.3510    4.1850 C   0  0  0  0  0  0  0  0  0  0  0  0
   27.7380   15.2450    5.5840 C   0  0  0  0  0  0  0  0  0  0  0  0
   26.9870   15.5800    6.7280 C   0  0  0  0  0  0  0  0  0  0  0  0
   27.5040   15.3460    8.0200 C   0  0  0  0  0  0  0  0  0  0  0  0
   26.7010   15.7160    9.2010 C   0  0  0  0  0  0  0  0  0  0  0  0
   25.4460   15.0970    9.4550 C   0  0  0  0  0  0  0  0  0  0  0  0
   24.7040   15.3810   10.6100 C   0  0  0  0  0  0  0  0  0  0  0  0
   25.2410   16.2910   11.4950 C   0  0  0  0  0  0  0  0  0  0  0  0
   26.4430   16.9220   11.2500 C   0  0  0  0  0  0  0  0  0  0  0  0
   27.1870   16.6700   10.1140 C   0  0  0  0  0  0  0  0  0  0  0  0
   26.7220   17.8000   12.3830 C   0  0  0  0  0  0  0  0  0  0  0  0
   27.6810   18.5460   12.4450 O   0  0  0  0  0  0  0  0  0  0  0  0
   25.7030   17.6200   13.2780 N   0  0  0  0  0  0  0  0  0  0  0  0
   25.5280   18.3770   14.5040 C   0  0  1  0  0  0  0  0  0  0  0  0
   26.2860   17.8080   15.7010 C   0  0  0  0  0  0  0  0  0  0  0  0
   26.0000   18.6620   16.9270 C   0  0  0  0  0  0  0  0  0  0  0  0
   26.3550   20.1110   16.6820 C   0  0  0  0  0  0  0  0  0  0  0  0
   26.6960   20.8650   17.5890 O   0  0  0  0  0  0  0  0  0  0  0  0
   26.2250   20.5660   15.3940 N   0  0  0  0  0  0  0  0  0  0  0  0
   25.9340   19.8350   14.2630 C   0  0  0  0  0  0  0  0  0  0  0  0
   25.9530   20.3680   13.1550 O   0  0  0  0  0  0  0  0  0  0  0  0
   24.7520   16.7660   12.7870 C   0  0  0  0  0  0  0  0  0  0  0  0
   23.6930   16.4300   13.2840 O   0  0  0  0  0  0  0  0  0  0  0  0
   28.8810   10.9130    8.2370 C   0  0  0  0  0  0  0  0  0  0  0  0
   27.8530   10.4280    7.5720 N   0  0  0  0  0  0  0  0  0  0  0  0
   24.8497    9.5640    8.8806 H   0  0  0  0  0  0  0  0  0  0  0  0
   23.8507    9.4948    7.3893 H   0  0  0  0  0  0  0  0  0  0  0  0
   25.5127    8.8135    7.3893 H   0  0  0  0  0  0  0  0  0  0  0  0
   25.4889   10.9850    6.2511 H   0  0  0  0  0  0  0  0  0  0  0  0
   24.7446   11.7441    7.7250 H   0  0  0  0  0  0  0  0  0  0  0  0
   26.5731   13.0551    9.1812 H   0  0  0  0  0  0  0  0  0  0  0  0
   30.5328   13.9399    7.1173 H   0  0  0  0  0  0  0  0  0  0  0  0
   30.4278   14.0174    4.2982 H   0  0  0  0  0  0  0  0  0  0  0  0
   28.7570   14.7864    2.4499 H   0  0  0  0  0  0  0  0  0  0  0  0
   26.6073   15.7612    3.7049 H   0  0  0  0  0  0  0  0  0  0  0  0
   25.9889   16.0279    6.6131 H   0  0  0  0  0  0  0  0  0  0  0  0
   25.0470   14.3764    8.7259 H   0  0  0  0  0  0  0  0  0  0  0  0
   23.7344   14.8981   10.8018 H   0  0  0  0  0  0  0  0  0  0  0  0
   28.1328   17.2001    9.9282 H   0  0  0  0  0  0  0  0  0  0  0  0
   24.4622   18.3079   14.7674 H   0  0  0  0  0  0  0  0  0  0  0  0
   25.9570   16.7750   15.8874 H   0  0  0  0  0  0  0  0  0  0  0  0
   27.3657   17.8135   15.4909 H   0  0  0  0  0  0  0  0  0  0  0  0
   24.9297   18.5916   17.1710 H   0  0  0  0  0  0  0  0  0  0  0  0
   26.6144   18.2901   17.7602 H   0  0  0  0  0  0  0  0  0  0  0  0
   26.3616   21.5775   15.2559 H   0  0  0  0  0  0  0  0  0  0  0  0
   29.9036   10.5104    8.1903 H   0  0  0  0  0  0  0  0  0  0  0  0
  1  2  1  0
  2  3  1  0
  3  4  2  0
  4  5  1  0
  5  6  1  0
  6  7  2  0
  6  8  2  0
  6  9  1  0
  9 10  1  0
 10 11  2  0
 11 12  1  0
 12 13  1  0
 13 14  1  0
 14 15  2  0
 15 16  1  0
 16 17  1  0
 17 18  2  0
 18 19  1  0
 19 20  2  0
 20 21  1  0
 21 22  2  0
 22 23  1  0
 23 24  2  0
 23 25  1  0
 25 26  2  0
 25 27  1  0
 27 28  1  0
 28 29  1  0
 29 30  1  0
 30 31  1  0
 31 32  2  0
 31 33  1  0
 33 34  1  0
 34 35  2  0
 27 36  1  0
 36 37  2  0
  5 38  1  0
 38 39  2  0
 39  3  1  0
 18 10  1  0
 24 19  1  0
 34 28  1  0
 16 12  2  0
 36 22  1  0
  1 40  1  0
  1 41  1  0
  1 42  1  0
  2 43  1  0
  2 44  1  0
  4 45  1  0
 11 46  1  0
 13 47  1  0
 14 48  1  0
 15 49  1  0
 17 50  1  0
 20 51  1  0
 21 52  1  0
 24 53  1  0
 28 54  1  1
 29 55  1  0
 29 56  1  0
 30 57  1  0
 30 58  1  0
 33 59  1  0
 38 60  1  0
M  END
>  <meeko>  (742) 
{"is_sidechain": [true], "free_energy": -11.58, "intermolecular_energy": 0.0, "internal_energy": -11.58, "cluster_size": 3, "cluster_id": 1, "rank_in_cluster": 1}

>  <_RMSD_MCS_to_ref>  (742) 
1.1224904875930322

$$$$
ligand
     RDKit          3D

 56 60  0  0  0  0  0  0  0  0999 V2000
   24.8710    9.6160    7.7820 C   0  0  0  0  0  0  0  0  0  0  0  0
   25.4240   10.9650    7.3490 C   0  0  0  0  0  0  0  0  0  0  0  0
   26.9100   10.9670    7.2800 C   0  0  0  0  0  0  0  0  0  0  0  0
   27.7600   11.9760    6.8720 C   0  0  0  0  0  0  0  0  0  0  0  0
   29.0070   11.4300    6.9810 N   0  0  0  0  0  0  0  0  0  0  0  0
   30.4550   12.2730    6.8630 S   0  0  0  0  0  6  0  0  0  0  0  0
   31.4700   11.2820    6.5730 O   0  0  0  0  0  0  0  0  0  0  0  0
   30.1750   13.4060    6.0070 O   0  0  0  0  0  0  0  0  0  0  0  0
   30.8670   12.9230    8.4390 C   0  0  0  0  0  0  0  0  0  0  0  0
   32.0040   12.7220    9.2090 C   0  0  0  0  0  0  0  0  0  0  0  0
   31.7220   13.2870   10.4510 C   0  0  0  0  0  0  0  0  0  0  0  0
   30.5090   13.8250   10.4840 N   0  0  0  0  0  0  0  0  0  0  0  0
   30.0250   13.7180    9.2100 N   0  0  0  0  0  0  0  0  0  0  0  0
   28.8200   14.4120    8.9060 C   0  0  0  0  0  0  0  0  0  0  0  0
   28.5010   14.6510    7.5710 C   0  0  0  0  0  0  0  0  0  0  0  0
   27.3900   15.3040    7.1600 N   0  0  0  0  0  0  0  0  0  0  0  0
   26.5410   15.7300    8.1250 C   0  0  0  0  0  0  0  0  0  0  0  0
   26.7330   15.5270    9.4910 C   0  0  0  0  0  0  0  0  0  0  0  0
   25.7660   16.0060   10.4920 C   0  0  0  0  0  0  0  0  0  0  0  0
   24.4010   15.7100   10.3750 C   0  0  0  0  0  0  0  0  0  0  0  0
   23.4900   16.1690   11.3210 C   0  0  0  0  0  0  0  0  0  0  0  0
   23.9270   16.9320   12.4060 C   0  0  0  0  0  0  0  0  0  0  0  0
   25.2830   17.2480   12.5700 C   0  0  0  0  0  0  0  0  0  0  0  0
   25.7370   18.0380   13.6810 N   0  0  0  0  0  0  0  0  0  0  0  0
   26.3150   17.3760   14.8470 C   0  0  0  0  0  0  0  0  0  0  0  0
   25.9360   18.1000   16.1220 C   0  0  0  0  0  0  0  0  0  0  0  0
   26.3150   19.5430   16.0030 C   0  0  0  0  0  0  0  0  0  0  0  0
   26.5220   20.2540   16.9810 O   0  0  0  0  0  0  0  0  0  0  0  0
   26.3310   20.0470   14.7330 N   0  0  0  0  0  0  0  0  0  0  0  0
   25.8600   19.4300   13.5980 C   0  0  0  0  0  0  0  0  0  0  0  0
   25.6030   20.1330   12.6230 O   0  0  0  0  0  0  0  0  0  0  0  0
   26.1820   16.7800   11.5950 C   0  0  0  0  0  0  0  0  0  0  0  0
   27.8990   14.8350    9.8670 C   0  0  0  0  0  0  0  0  0  0  0  0
   28.8990   10.1750    7.4900 C   0  0  0  0  0  0  0  0  0  0  0  0
   27.6350    9.8590    7.6730 N   0  0  0  0  0  0  0  0  0  0  0  0
   24.8497    9.5640    8.8806 H   0  0  0  0  0  0  0  0  0  0  0  0
   23.8507    9.4948    7.3893 H   0  0  0  0  0  0  0  0  0  0  0  0
   25.5127    8.8135    7.3893 H   0  0  0  0  0  0  0  0  0  0  0  0
   25.0228   11.2096    6.3544 H   0  0  0  0  0  0  0  0  0  0  0  0
   25.1196   11.7110    8.0979 H   0  0  0  0  0  0  0  0  0  0  0  0
   27.4934   12.9888    6.5358 H   0  0  0  0  0  0  0  0  0  0  0  0
   32.9341   12.2210    8.9026 H   0  0  0  0  0  0  0  0  0  0  0  0
   32.4200   13.2872   11.3012 H   0  0  0  0  0  0  0  0  0  0  0  0
   29.1972   14.2852    6.8019 H   0  0  0  0  0  0  0  0  0  0  0  0
   25.6381   16.2734    7.8097 H   0  0  0  0  0  0  0  0  0  0  0  0
   24.0460   15.1080    9.5256 H   0  0  0  0  0  0  0  0  0  0  0  0
   22.4216   15.9301   11.2140 H   0  0  0  0  0  0  0  0  0  0  0  0
   23.1949   17.2911   13.1443 H   0  0  0  0  0  0  0  0  0  0  0  0
   25.9428   16.3420   14.8956 H   0  0  0  0  0  0  0  0  0  0  0  0
   27.4106   17.3855   14.7496 H   0  0  0  0  0  0  0  0  0  0  0  0
   24.8510   18.0172   16.2829 H   0  0  0  0  0  0  0  0  0  0  0  0
   26.4664   17.6488   16.9735 H   0  0  0  0  0  0  0  0  0  0  0  0
   26.7377   20.9857   14.6136 H   0  0  0  0  0  0  0  0  0  0  0  0
   27.2491   17.0268   11.6965 H   0  0  0  0  0  0  0  0  0  0  0  0
   28.0874   14.6247   10.9302 H   0  0  0  0  0  0  0  0  0  0  0  0
   29.7494    9.5153    7.7173 H   0  0  0  0  0  0  0  0  0  0  0  0
  1  2  1  0
  2  3  1  0
  3  4  2  0
  4  5  1  0
  5  6  1  0
  6  7  2  0
  6  8  2  0
  6  9  1  0
  9 10  2  0
 10 11  1  0
 11 12  2  0
 12 13  1  0
 13 14  1  0
 14 15  2  0
 15 16  1  0
 16 17  2  0
 17 18  1  0
 18 19  1  0
 19 20  2  0
 20 21  1  0
 21 22  2  0
 22 23  1  0
 23 24  1  0
 24 25  1  0
 25 26  1  0
 26 27  1  0
 27 28  2  0
 27 29  1  0
 29 30  1  0
 30 31  2  0
 23 32  2  0
 18 33  2  0
  5 34  1  0
 34 35  2  0
 35  3  1  0
 13  9  1  0
 33 14  1  0
 32 19  1  0
 30 24  1  0
  1 36  1  0
  1 37  1  0
  1 38  1  0
  2 39  1  0
  2 40  1  0
  4 41  1  0
 10 42  1  0
 11 43  1  0
 15 44  1  0
 17 45  1  0
 20 46  1  0
 21 47  1  0
 22 48  1  0
 25 49  1  0
 25 50  1  0
 26 51  1  0
 26 52  1  0
 29 53  1  0
 32 54  1  0
 33 55  1  0
 34 56  1  0
M  END
>  <meeko>  (743) 
{"is_sidechain": [true], "free_energy": -11.58, "intermolecular_energy": 0.0, "internal_energy": -11.58, "cluster_size": 20, "cluster_id": 1, "rank_in_cluster": 1}

>  <_RMSD_MCS_to_ref>  (743) 
0.9846852288929697

$$$$
ligand
     RDKit          3D

 58 63  0  0  0  0  0  0  0  0999 V2000
   24.8540    9.4020    7.6050 C   0  0  0  0  0  0  0  0  0  0  0  0
   25.5230   10.7550    7.4270 C   0  0  0  0  0  0  0  0  0  0  0  0
   25.0030   11.4940    6.2430 C   0  0  0  0  0  0  0  0  0  0  0  0
   24.9980   12.8560    6.0140 C   0  0  0  0  0  0  0  0  0  0  0  0
   24.4150   12.9900    4.7870 N   0  0  0  0  0  0  0  0  0  0  0  0
   24.3850   14.3870    3.8620 S   0  0  0  0  0  6  0  0  0  0  0  0
   22.9930   14.7830    3.7600 O   0  0  0  0  0  0  0  0  0  0  0  0
   25.1990   14.1060    2.6920 O   0  0  0  0  0  0  0  0  0  0  0  0
   25.2260   15.6740    4.7660 C   0  0  0  0  0  0  0  0  0  0  0  0
   26.1090   16.5950    3.9810 C   0  0  0  0  0  0  0  0  0  0  0  0
   26.7390   17.5360    4.6970 C   0  0  0  0  0  0  0  0  0  0  0  0
   26.5490   17.6250    6.0720 N   0  0  0  0  0  0  0  0  0  0  0  0
   27.1000   18.5200    6.9230 N   0  0  0  0  0  0  0  0  0  0  0  0
   26.5770   18.2130    8.1100 C   0  0  0  0  0  0  0  0  0  0  0  0
   25.7030   17.1070    8.0600 C   0  0  0  0  0  0  0  0  0  0  0  0
   24.9070   16.5130    9.1160 C   0  0  0  0  0  0  0  0  0  0  0  0
   23.8590   15.6350    8.7760 C   0  0  0  0  0  0  0  0  0  0  0  0
   23.0330   15.0610    9.7610 C   0  0  0  0  0  0  0  0  0  0  0  0
   23.2310   15.3570   11.1070 C   0  0  0  0  0  0  0  0  0  0  0  0
   24.2640   16.2220   11.4200 C   0  0  0  0  0  0  0  0  0  0  0  0
   25.1010   16.7950   10.4610 C   0  0  0  0  0  0  0  0  0  0  0  0
   26.0740   17.7020   11.1390 C   0  0  0  0  0  0  0  0  0  0  0  0
   25.7760   17.5100   12.5520 N   0  0  0  0  0  0  0  0  0  0  0  0
   26.4090   18.3400   13.5720 C   0  0  2  0  0  0  0  0  0  0  0  0
   26.2350   17.8260   15.0000 C   0  0  0  0  0  0  0  0  0  0  0  0
   27.0100   18.7220   15.9540 C   0  0  0  0  0  0  0  0  0  0  0  0
   26.5630   20.1600   15.8350 C   0  0  0  0  0  0  0  0  0  0  0  0
   26.7190   20.9720   16.7420 O   0  0  0  0  0  0  0  0  0  0  0  0
   26.0380   20.5440   14.6260 N   0  0  0  0  0  0  0  0  0  0  0  0
   25.9270   19.7960   13.4760 C   0  0  0  0  0  0  0  0  0  0  0  0
   25.5600   20.3270   12.4280 O   0  0  0  0  0  0  0  0  0  0  0  0
   24.6630   16.7150   12.7430 C   0  0  0  0  0  0  0  0  0  0  0  0
   24.0830   16.4510   13.7780 O   0  0  0  0  0  0  0  0  0  0  0  0
   25.6950   16.7290    6.7320 C   0  0  0  0  0  0  0  0  0  0  0  0
   25.0320   15.7360    6.0560 N   0  0  0  0  0  0  0  0  0  0  0  0
   24.1240   11.7560    4.2980 C   0  0  0  0  0  0  0  0  0  0  0  0
   24.4610   10.8210    5.1610 N   0  0  0  0  0  0  0  0  0  0  0  0
   24.7464    9.1845    8.6779 H   0  0  0  0  0  0  0  0  0  0  0  0
   23.8606    9.4192    7.1330 H   0  0  0  0  0  0  0  0  0  0  0  0
   25.4708    8.6230    7.1330 H   0  0  0  0  0  0  0  0  0  0  0  0
   25.3425   11.3596    8.3280 H   0  0  0  0  0  0  0  0  0  0  0  0
   26.5972   10.5797    7.2678 H   0  0  0  0  0  0  0  0  0  0  0  0
   25.3777   13.6522    6.6713 H   0  0  0  0  0  0  0  0  0  0  0  0
   26.2317   16.5049    2.8916 H   0  0  0  0  0  0  0  0  0  0  0  0
   27.4126   18.2446    4.1929 H   0  0  0  0  0  0  0  0  0  0  0  0
   26.8037   18.7655    9.0338 H   0  0  0  0  0  0  0  0  0  0  0  0
   23.6822   15.3926    7.7177 H   0  0  0  0  0  0  0  0  0  0  0  0
   22.2261   14.3743    9.4654 H   0  0  0  0  0  0  0  0  0  0  0  0
   22.5923   14.9209   11.8892 H   0  0  0  0  0  0  0  0  0  0  0  0
   27.1100   17.4110   10.9109 H   0  0  0  0  0  0  0  0  0  0  0  0
   25.9847   18.7500   10.8170 H   0  0  0  0  0  0  0  0  0  0  0  0
   27.4861   18.2871   13.3551 H   0  0  0  0  0  0  0  0  0  0  0  0
   25.1682   17.8393   15.2680 H   0  0  0  0  0  0  0  0  0  0  0  0
   26.6154   16.7962   15.0702 H   0  0  0  0  0  0  0  0  0  0  0  0
   26.8427   18.3781   16.9854 H   0  0  0  0  0  0  0  0  0  0  0  0
   28.0778   18.6659   15.6957 H   0  0  0  0  0  0  0  0  0  0  0  0
   25.6840   21.5098   14.5731 H   0  0  0  0  0  0  0  0  0  0  0  0
   23.6689   11.5646    3.3150 H   0  0  0  0  0  0  0  0  0  0  0  0
  1  2  1  0
  2  3  1  0
  3  4  2  0
  4  5  1  0
  5  6  1  0
  6  7  2  0
  6  8  2  0
  6  9  1  0
  9 10  1  0
 10 11  2  0
 11 12  1  0
 12 13  1  0
 13 14  2  0
 14 15  1  0
 15 16  1  0
 16 17  2  0
 17 18  1  0
 18 19  2  0
 19 20  1  0
 20 21  2  0
 21 22  1  0
 22 23  1  0
 23 24  1  0
 24 25  1  0
 25 26  1  0
 26 27  1  0
 27 28  2  0
 27 29  1  0
 29 30  1  0
 30 31  2  0
 23 32  1  0
 32 33  2  0
 15 34  2  0
 34 35  1  0
  5 36  1  0
 36 37  2  0
 37  3  1  0
 35  9  2  0
 34 12  1  0
 21 16  1  0
 30 24  1  0
 32 20  1  0
  1 38  1  0
  1 39  1  0
  1 40  1  0
  2 41  1  0
  2 42  1  0
  4 43  1  0
 10 44  1  0
 11 45  1  0
 14 46  1  0
 17 47  1  0
 18 48  1  0
 19 49  1  0
 22 50  1  0
 22 51  1  0
 24 52  1  6
 25 53  1  0
 25 54  1  0
 26 55  1  0
 26 56  1  0
 29 57  1  0
 36 58  1  0
M  END
>  <meeko>  (744) 
{"is_sidechain": [true], "free_energy": -11.57, "intermolecular_energy": 0.0, "internal_energy": -11.57, "cluster_size": 9, "cluster_id": 1, "rank_in_cluster": 1}

>  <_RMSD_MCS_to_ref>  (744) 
1.215032052617908

$$$$
ligand
     RDKit          3D

 64 69  0  0  0  0  0  0  0  0999 V2000
   24.8540    9.4020    7.6050 C   0  0  0  0  0  0  0  0  0  0  0  0
   25.5230   10.7550    7.4270 C   0  0  0  0  0  0  0  0  0  0  0  0
   24.9680   11.5090    6.2710 C   0  0  0  0  0  0  0  0  0  0  0  0
   25.3550   12.7360    5.7700 C   0  0  0  0  0  0  0  0  0  0  0  0
   24.5120   12.9530    4.7210 N   0  0  0  0  0  0  0  0  0  0  0  0
   24.6270   14.2020    3.6030 S   0  0  0  0  0  6  0  0  0  0  0  0
   23.7660   13.8370    2.4950 O   0  0  0  0  0  0  0  0  0  0  0  0
   24.4310   15.4310    4.3540 O   0  0  0  0  0  0  0  0  0  0  0  0
   26.2970   14.1380    3.0530 C   0  0  0  0  0  0  0  0  0  0  0  0
   26.7010   13.1630    2.1310 C   0  0  0  0  0  0  0  0  0  0  0  0
   28.0200   13.1610    1.6420 C   0  0  0  0  0  0  0  0  0  0  0  0
   28.9310   14.1390    2.0490 C   0  0  0  0  0  0  0  0  0  0  0  0
   28.4900   15.0870    2.9440 C   0  0  0  0  0  0  0  0  0  0  0  0
   27.2160   15.0820    3.4560 C   0  0  0  0  0  0  0  0  0  0  0  0
   27.4510   16.3140    4.3050 C   0  0  1  0  0  0  0  0  0  0  0  0
   27.3640   16.0370    5.8440 C   0  0  0  0  0  0  0  0  0  0  0  0
   28.2770   15.5190    6.4910 O   0  0  0  0  0  0  0  0  0  0  0  0
   26.1490   16.4220    6.3880 N   0  0  0  0  0  0  0  0  0  0  0  0
   25.7460   16.3800    7.7400 C   0  0  0  0  0  0  0  0  0  0  0  0
   24.6740   15.5980    8.2150 C   0  0  0  0  0  0  0  0  0  0  0  0
   24.3120   15.5970    9.5720 C   0  0  0  0  0  0  0  0  0  0  0  0
   25.0350   16.3870   10.4420 C   0  0  0  0  0  0  0  0  0  0  0  0
   26.0950   17.1520    9.9660 C   0  0  0  0  0  0  0  0  0  0  0  0
   26.4760   17.1680    8.6370 C   0  0  0  0  0  0  0  0  0  0  0  0
   26.6780   17.8780   11.0990 C   0  0  0  0  0  0  0  0  0  0  0  0
   27.6720   18.5720   11.0340 O   0  0  0  0  0  0  0  0  0  0  0  0
   25.8920   17.5900   12.2060 N   0  0  0  0  0  0  0  0  0  0  0  0
   26.2530   17.9280   13.5790 C   0  0  2  0  0  0  0  0  0  0  0  0
   25.8200   16.8810   14.6050 C   0  0  0  0  0  0  0  0  0  0  0  0
   26.2980   17.3010   15.9860 C   0  0  0  0  0  0  0  0  0  0  0  0
   25.7830   18.6730   16.3510 C   0  0  0  0  0  0  0  0  0  0  0  0
   25.6780   19.0440   17.5170 O   0  0  0  0  0  0  0  0  0  0  0  0
   25.5150   19.5280   15.3120 N   0  0  0  0  0  0  0  0  0  0  0  0
   25.7230   19.3170   13.9690 C   0  0  0  0  0  0  0  0  0  0  0  0
   25.5850   20.2400   13.1660 O   0  0  0  0  0  0  0  0  0  0  0  0
   24.8980   16.5670   11.9150 C   0  0  0  0  0  0  0  0  0  0  0  0
   28.8970   16.3280    3.6820 C   0  0  0  0  0  0  0  0  0  0  0  0
   23.6910   11.8800    4.5820 C   0  0  0  0  0  0  0  0  0  0  0  0
   23.9350   10.9860    5.5170 N   0  0  0  0  0  0  0  0  0  0  0  0
   24.7464    9.1845    8.6779 H   0  0  0  0  0  0  0  0  0  0  0  0
   23.8606    9.4192    7.1330 H   0  0  0  0  0  0  0  0  0  0  0  0
   25.4708    8.6230    7.1330 H   0  0  0  0  0  0  0  0  0  0  0  0
   25.3725   11.3475    8.3415 H   0  0  0  0  0  0  0  0  0  0  0  0
   26.5918   10.5803    7.2342 H   0  0  0  0  0  0  0  0  0  0  0  0
   26.1608   13.3900    6.1346 H   0  0  0  0  0  0  0  0  0  0  0  0
   25.9867   12.3993    1.7897 H   0  0  0  0  0  0  0  0  0  0  0  0
   28.3371   12.3823    0.9327 H   0  0  0  0  0  0  0  0  0  0  0  0
   29.9629   14.1509    1.6681 H   0  0  0  0  0  0  0  0  0  0  0  0
   26.8078   17.2060    4.2810 H   0  0  0  0  0  0  0  0  0  0  0  0
   25.4522   16.7845    5.7217 H   0  0  0  0  0  0  0  0  0  0  0  0
   24.1082   14.9745    7.5071 H   0  0  0  0  0  0  0  0  0  0  0  0
   23.4738   14.9823    9.9319 H   0  0  0  0  0  0  0  0  0  0  0  0
   27.3244   17.7796    8.2962 H   0  0  0  0  0  0  0  0  0  0  0  0
   27.3527   17.9442   13.5989 H   0  0  0  0  0  0  0  0  0  0  0  0
   24.7231   16.7989   14.6053 H   0  0  0  0  0  0  0  0  0  0  0  0
   26.2591   15.9067   14.3442 H   0  0  0  0  0  0  0  0  0  0  0  0
   25.9358   16.5734   16.7272 H   0  0  0  0  0  0  0  0  0  0  0  0
   27.3975   17.3336   15.9779 H   0  0  0  0  0  0  0  0  0  0  0  0
   25.1085   20.4388   15.5691 H   0  0  0  0  0  0  0  0  0  0  0  0
   25.1214   15.6329   12.4513 H   0  0  0  0  0  0  0  0  0  0  0  0
   23.8808   16.8450   12.2281 H   0  0  0  0  0  0  0  0  0  0  0  0
   29.1170   17.1955    3.0425 H   0  0  0  0  0  0  0  0  0  0  0  0
   29.8039   16.3715    4.3030 H   0  0  0  0  0  0  0  0  0  0  0  0
   22.9280   11.7728    3.7970 H   0  0  0  0  0  0  0  0  0  0  0  0
  1  2  1  0
  2  3  1  0
  3  4  2  0
  4  5  1  0
  5  6  1  0
  6  7  2  0
  6  8  2  0
  6  9  1  0
  9 10  2  0
 10 11  1  0
 11 12  2  0
 12 13  1  0
 13 14  2  0
 14 15  1  0
 15 16  1  0
 16 17  2  0
 16 18  1  0
 18 19  1  0
 19 20  2  0
 20 21  1  0
 21 22  2  0
 22 23  1  0
 23 24  2  0
 23 25  1  0
 25 26  2  0
 25 27  1  0
 27 28  1  0
 28 29  1  0
 29 30  1  0
 30 31  1  0
 31 32  2  0
 31 33  1  0
 33 34  1  0
 34 35  2  0
 27 36  1  0
 15 37  1  0
  5 38  1  0
 38 39  2  0
 39  3  1  0
 14  9  1  0
 24 19  1  0
 34 28  1  0
 37 13  1  0
 36 22  1  0
  1 40  1  0
  1 41  1  0
  1 42  1  0
  2 43  1  0
  2 44  1  0
  4 45  1  0
 10 46  1  0
 11 47  1  0
 12 48  1  0
 15 49  1  6
 18 50  1  0
 20 51  1  0
 21 52  1  0
 24 53  1  0
 28 54  1  6
 29 55  1  0
 29 56  1  0
 30 57  1  0
 30 58  1  0
 33 59  1  0
 36 60  1  0
 36 61  1  0
 37 62  1  0
 37 63  1  0
 38 64  1  0
M  END
>  <meeko>  (745) 
{"is_sidechain": [true], "free_energy": -11.57, "intermolecular_energy": 0.0, "internal_energy": -11.57, "cluster_size": 1, "cluster_id": 3, "rank_in_cluster": 1}

>  <_RMSD_MCS_to_ref>  (745) 
1.554532888040648

$$$$
ligand
     RDKit          3D

 65 69  0  0  0  0  0  0  0  0999 V2000
   24.8540    9.4020    7.6050 C   0  0  0  0  0  0  0  0  0  0  0  0
   25.5230   10.7550    7.4270 C   0  0  0  0  0  0  0  0  0  0  0  0
   25.3680   11.2810    6.0430 C   0  0  0  0  0  0  0  0  0  0  0  0
   24.6370   12.3660    5.6030 C   0  0  0  0  0  0  0  0  0  0  0  0
   24.8420   12.3830    4.2530 N   0  0  0  0  0  0  0  0  0  0  0  0
   24.3540   13.5880    3.1900 S   0  0  0  0  0  6  0  0  0  0  0  0
   22.9140   13.4510    3.0880 O   0  0  0  0  0  0  0  0  0  0  0  0
   25.2380   13.4470    2.0480 O   0  0  0  0  0  0  0  0  0  0  0  0
   24.7010   15.1650    3.9540 C   0  0  0  0  0  0  0  0  0  0  0  0
   23.7910   16.2230    3.8170 C   0  0  0  0  0  0  0  0  0  0  0  0
   24.0480   17.4440    4.4310 C   0  0  0  0  0  0  0  0  0  0  0  0
   25.1970   17.6130    5.1960 C   0  0  0  0  0  0  0  0  0  0  0  0
   26.1150   16.5620    5.3680 C   0  0  0  0  0  0  0  0  0  0  0  0
   25.8930   15.3310    4.7040 C   0  0  0  0  0  0  0  0  0  0  0  0
   26.9080   14.2110    4.8330 C   0  0  0  0  0  0  0  0  0  0  0  0
   28.2890   14.6830    5.2720 C   0  0  0  0  0  0  0  0  0  0  0  0
   28.1690   15.5430    6.5180 C   0  0  0  0  0  0  0  0  0  0  0  0
   27.3610   16.8130    6.2180 C   0  0  2  0  0  0  0  0  0  0  0  0
   27.0630   17.5290    7.5440 C   0  0  0  0  0  0  0  0  0  0  0  0
   27.2360   18.7410    7.6420 O   0  0  0  0  0  0  0  0  0  0  0  0
   26.6300   16.6820    8.5510 N   0  0  0  0  0  0  0  0  0  0  0  0
   26.2800   17.0180    9.8740 C   0  0  0  0  0  0  0  0  0  0  0  0
   27.0710   17.9760   10.5190 C   0  0  0  0  0  0  0  0  0  0  0  0
   26.7960   18.3680   11.8330 C   0  0  0  0  0  0  0  0  0  0  0  0
   25.7210   17.8060   12.5340 C   0  0  0  0  0  0  0  0  0  0  0  0
   25.4220   18.2510   13.9550 C   0  0  1  0  0  0  0  0  0  0  0  0
   26.3060   17.4960   14.9540 C   0  0  0  0  0  0  0  0  0  0  0  0
   25.9650   17.9260   16.3710 C   0  0  0  0  0  0  0  0  0  0  0  0
   26.1180   19.4170   16.5360 C   0  0  0  0  0  0  0  0  0  0  0  0
   26.3170   19.9400   17.6290 O   0  0  0  0  0  0  0  0  0  0  0  0
   25.9480   20.1770   15.4070 N   0  0  0  0  0  0  0  0  0  0  0  0
   25.5590   19.7610   14.1540 C   0  0  0  0  0  0  0  0  0  0  0  0
   25.2770   20.5950   13.2960 O   0  0  0  0  0  0  0  0  0  0  0  0
   24.9320   16.8470   11.8840 C   0  0  0  0  0  0  0  0  0  0  0  0
   25.2090   16.4590   10.5670 C   0  0  0  0  0  0  0  0  0  0  0  0
   25.6760   11.3650    3.9150 C   0  0  0  0  0  0  0  0  0  0  0  0
   26.0200   10.6780    4.9850 N   0  0  0  0  0  0  0  0  0  0  0  0
   24.7464    9.1845    8.6779 H   0  0  0  0  0  0  0  0  0  0  0  0
   23.8606    9.4192    7.1330 H   0  0  0  0  0  0  0  0  0  0  0  0
   25.4708    8.6230    7.1330 H   0  0  0  0  0  0  0  0  0  0  0  0
   25.0702   11.4694    8.1303 H   0  0  0  0  0  0  0  0  0  0  0  0
   26.5982   10.6284    7.6218 H   0  0  0  0  0  0  0  0  0  0  0  0
   24.0284   13.0587    6.2028 H   0  0  0  0  0  0  0  0  0  0  0  0
   22.8744   16.0872    3.2242 H   0  0  0  0  0  0  0  0  0  0  0  0
   23.3408   18.2780    4.3113 H   0  0  0  0  0  0  0  0  0  0  0  0
   25.3907   18.5845    5.6742 H   0  0  0  0  0  0  0  0  0  0  0  0
   26.5359   13.4889    5.5746 H   0  0  0  0  0  0  0  0  0  0  0  0
   27.0233   13.7652    3.8340 H   0  0  0  0  0  0  0  0  0  0  0  0
   28.9205   13.8094    5.4911 H   0  0  0  0  0  0  0  0  0  0  0  0
   28.7427   15.2764    4.4645 H   0  0  0  0  0  0  0  0  0  0  0  0
   27.6612   14.9687    7.3069 H   0  0  0  0  0  0  0  0  0  0  0  0
   29.1772   15.8324    6.8493 H   0  0  0  0  0  0  0  0  0  0  0  0
   27.9691   17.4753    5.5843 H   0  0  0  0  0  0  0  0  0  0  0  0
   26.5547   15.6853    8.3025 H   0  0  0  0  0  0  0  0  0  0  0  0
   27.9206   18.4267    9.9850 H   0  0  0  0  0  0  0  0  0  0  0  0
   27.4292   19.1241   12.3203 H   0  0  0  0  0  0  0  0  0  0  0  0
   24.3667   18.0042   14.1430 H   0  0  0  0  0  0  0  0  0  0  0  0
   26.1339   16.4146   14.8492 H   0  0  0  0  0  0  0  0  0  0  0  0
   27.3623   17.7249   14.7494 H   0  0  0  0  0  0  0  0  0  0  0  0
   24.9247   17.6448   16.5915 H   0  0  0  0  0  0  0  0  0  0  0  0
   26.6557   17.4244   17.0648 H   0  0  0  0  0  0  0  0  0  0  0  0
   26.1347   21.1847   15.5096 H   0  0  0  0  0  0  0  0  0  0  0  0
   24.0831   16.3926   12.4159 H   0  0  0  0  0  0  0  0  0  0  0  0
   24.5751   15.7062   10.0757 H   0  0  0  0  0  0  0  0  0  0  0  0
   26.0160   11.1455    2.8921 H   0  0  0  0  0  0  0  0  0  0  0  0
  1  2  1  0
  2  3  1  0
  3  4  2  0
  4  5  1  0
  5  6  1  0
  6  7  2  0
  6  8  2  0
  6  9  1  0
  9 10  2  0
 10 11  1  0
 11 12  2  0
 12 13  1  0
 13 14  2  0
 14 15  1  0
 15 16  1  0
 16 17  1  0
 17 18  1  0
 18 19  1  0
 19 20  2  0
 19 21  1  0
 21 22  1  0
 22 23  2  0
 23 24  1  0
 24 25  2  0
 25 26  1  0
 26 27  1  0
 27 28  1  0
 28 29  1  0
 29 30  2  0
 29 31  1  0
 31 32  1  0
 32 33  2  0
 25 34  1  0
 34 35  2  0
  5 36  1  0
 36 37  2  0
 37  3  1  0
 14  9  1  0
 35 22  1  0
 18 13  1  0
 32 26  1  0
  1 38  1  0
  1 39  1  0
  1 40  1  0
  2 41  1  0
  2 42  1  0
  4 43  1  0
 10 44  1  0
 11 45  1  0
 12 46  1  0
 15 47  1  0
 15 48  1  0
 16 49  1  0
 16 50  1  0
 17 51  1  0
 17 52  1  0
 18 53  1  6
 21 54  1  0
 23 55  1  0
 24 56  1  0
 26 57  1  1
 27 58  1  0
 27 59  1  0
 28 60  1  0
 28 61  1  0
 31 62  1  0
 34 63  1  0
 35 64  1  0
 36 65  1  0
M  END
>  <meeko>  (746) 
{"is_sidechain": [true], "free_energy": -11.56, "intermolecular_energy": 0.0, "internal_energy": -11.56, "cluster_size": 20, "cluster_id": 1, "rank_in_cluster": 1}

>  <_RMSD_MCS_to_ref>  (746) 
0.8936182770064629

$$$$
ligand
     RDKit          3D

 60 65  0  0  0  0  0  0  0  0999 V2000
   24.8540    9.4020    7.6050 C   0  0  0  0  0  0  0  0  0  0  0  0
   25.5230   10.7550    7.4270 C   0  0  0  0  0  0  0  0  0  0  0  0
   25.0150   11.4840    6.2330 C   0  0  0  0  0  0  0  0  0  0  0  0
   25.2210   12.8000    5.8670 C   0  0  0  0  0  0  0  0  0  0  0  0
   24.5600   12.9230    4.6800 N   0  0  0  0  0  0  0  0  0  0  0  0
   24.4690   14.2930    3.7120 S   0  0  0  0  0  6  0  0  0  0  0  0
   23.6900   15.2780    4.4390 O   0  0  0  0  0  0  0  0  0  0  0  0
   24.0370   13.7830    2.4230 O   0  0  0  0  0  0  0  0  0  0  0  0
   26.1230   14.8890    3.5340 C   0  0  0  0  0  0  0  0  0  0  0  0
   26.7290   14.7880    2.2700 C   0  0  0  0  0  0  0  0  0  0  0  0
   28.0410   15.2100    2.0970 C   0  0  0  0  0  0  0  0  0  0  0  0
   28.7370   15.7260    3.1850 C   0  0  0  0  0  0  0  0  0  0  0  0
   28.1090   15.8300    4.4410 C   0  0  0  0  0  0  0  0  0  0  0  0
   28.7590   16.3340    5.5570 C   0  0  0  0  0  0  0  0  0  0  0  0
   28.1910   16.4520    6.7700 N   0  0  0  0  0  0  0  0  0  0  0  0
   26.9110   16.0640    6.8620 C   0  0  0  0  0  0  0  0  0  0  0  0
   26.2340   16.2100    8.1640 C   0  0  0  0  0  0  0  0  0  0  0  0
   25.0460   15.4870    8.4550 C   0  0  0  0  0  0  0  0  0  0  0  0
   24.3760   15.6250    9.6760 C   0  0  0  0  0  0  0  0  0  0  0  0
   24.9130   16.4990   10.5980 C   0  0  0  0  0  0  0  0  0  0  0  0
   26.0810   17.2150   10.3590 C   0  0  0  0  0  0  0  0  0  0  0  0
   26.7510   17.0760    9.1540 C   0  0  0  0  0  0  0  0  0  0  0  0
   26.4230   18.0440   11.5490 C   0  0  0  0  0  0  0  0  0  0  0  0
   25.2820   17.8280   12.4270 N   0  0  0  0  0  0  0  0  0  0  0  0
   25.2940   18.2890   13.8120 C   0  0  1  0  0  0  0  0  0  0  0  0
   26.2940   17.5470   14.6980 C   0  0  0  0  0  0  0  0  0  0  0  0
   26.1810   18.0610   16.1250 C   0  0  0  0  0  0  0  0  0  0  0  0
   26.3950   19.5550   16.1890 C   0  0  0  0  0  0  0  0  0  0  0  0
   26.7590   20.1210   17.2160 O   0  0  0  0  0  0  0  0  0  0  0  0
   26.0790   20.2720   15.0610 N   0  0  0  0  0  0  0  0  0  0  0  0
   25.5230   19.8060   13.8910 C   0  0  0  0  0  0  0  0  0  0  0  0
   25.1450   20.5960   13.0270 O   0  0  0  0  0  0  0  0  0  0  0  0
   24.4320   16.8460   11.9380 C   0  0  0  0  0  0  0  0  0  0  0  0
   23.4730   16.3340   12.4850 O   0  0  0  0  0  0  0  0  0  0  0  0
   26.1960   15.5470    5.8410 N   0  0  0  0  0  0  0  0  0  0  0  0
   26.7840   15.4230    4.6390 C   0  0  0  0  0  0  0  0  0  0  0  0
   23.9370   11.7520    4.3920 C   0  0  0  0  0  0  0  0  0  0  0  0
   24.2080   10.8470    5.3090 N   0  0  0  0  0  0  0  0  0  0  0  0
   24.7464    9.1845    8.6779 H   0  0  0  0  0  0  0  0  0  0  0  0
   23.8606    9.4192    7.1330 H   0  0  0  0  0  0  0  0  0  0  0  0
   25.4708    8.6230    7.1330 H   0  0  0  0  0  0  0  0  0  0  0  0
   25.3309   11.3650    8.3220 H   0  0  0  0  0  0  0  0  0  0  0  0
   26.5995   10.5815    7.2823 H   0  0  0  0  0  0  0  0  0  0  0  0
   25.7879   13.5717    6.4084 H   0  0  0  0  0  0  0  0  0  0  0  0
   26.1657   14.3758    1.4198 H   0  0  0  0  0  0  0  0  0  0  0  0
   28.5238   15.1370    1.1113 H   0  0  0  0  0  0  0  0  0  0  0  0
   29.7801   16.0535    3.0641 H   0  0  0  0  0  0  0  0  0  0  0  0
   29.8042   16.6574    5.4431 H   0  0  0  0  0  0  0  0  0  0  0  0
   24.6410   14.7987    7.6985 H   0  0  0  0  0  0  0  0  0  0  0  0
   23.4578   15.0590    9.8917 H   0  0  0  0  0  0  0  0  0  0  0  0
   27.6794   17.6362    8.9692 H   0  0  0  0  0  0  0  0  0  0  0  0
   27.3559   17.6986   12.0184 H   0  0  0  0  0  0  0  0  0  0  0  0
   26.5948   19.1036   11.3085 H   0  0  0  0  0  0  0  0  0  0  0  0
   24.2958   18.0553   14.2107 H   0  0  0  0  0  0  0  0  0  0  0  0
   26.0740   16.4694   14.6773 H   0  0  0  0  0  0  0  0  0  0  0  0
   27.3144   17.7186   14.3248 H   0  0  0  0  0  0  0  0  0  0  0  0
   25.1787   17.8257   16.5123 H   0  0  0  0  0  0  0  0  0  0  0  0
   26.9574   17.5728   16.7323 H   0  0  0  0  0  0  0  0  0  0  0  0
   26.2828   21.2811   15.0945 H   0  0  0  0  0  0  0  0  0  0  0  0
   23.2952   11.5827    3.5148 H   0  0  0  0  0  0  0  0  0  0  0  0
  1  2  1  0
  2  3  1  0
  3  4  2  0
  4  5  1  0
  5  6  1  0
  6  7  2  0
  6  8  2  0
  6  9  1  0
  9 10  2  0
 10 11  1  0
 11 12  2  0
 12 13  1  0
 13 14  2  0
 14 15  1  0
 15 16  2  0
 16 17  1  0
 17 18  2  0
 18 19  1  0
 19 20  2  0
 20 21  1  0
 21 22  2  0
 21 23  1  0
 23 24  1  0
 24 25  1  0
 25 26  1  0
 26 27  1  0
 27 28  1  0
 28 29  2  0
 28 30  1  0
 30 31  1  0
 31 32  2  0
 24 33  1  0
 33 34  2  0
 16 35  1  0
 35 36  2  0
  5 37  1  0
 37 38  2  0
 38  3  1  0
 36  9  1  0
 36 13  1  0
 22 17  1  0
 31 25  1  0
 33 20  1  0
  1 39  1  0
  1 40  1  0
  1 41  1  0
  2 42  1  0
  2 43  1  0
  4 44  1  0
 10 45  1  0
 11 46  1  0
 12 47  1  0
 14 48  1  0
 18 49  1  0
 19 50  1  0
 22 51  1  0
 23 52  1  0
 23 53  1  0
 25 54  1  1
 26 55  1  0
 26 56  1  0
 27 57  1  0
 27 58  1  0
 30 59  1  0
 37 60  1  0
M  END
>  <meeko>  (747) 
{"is_sidechain": [true], "free_energy": -11.56, "intermolecular_energy": 0.0, "internal_energy": -11.56, "cluster_size": 9, "cluster_id": 2, "rank_in_cluster": 1}

>  <_RMSD_MCS_to_ref>  (747) 
0.8486326256592619

$$$$
ligand
     RDKit          3D

 60 65  0  0  0  0  0  0  0  0999 V2000
   24.8710    9.6160    7.7820 C   0  0  0  0  0  0  0  0  0  0  0  0
   25.4240   10.9650    7.3490 C   0  0  0  0  0  0  0  0  0  0  0  0
   24.9660   11.3460    5.9860 C   0  0  0  0  0  0  0  0  0  0  0  0
   24.2360   12.4510    5.5930 C   0  0  0  0  0  0  0  0  0  0  0  0
   24.0920   12.2950    4.2440 N   0  0  0  0  0  0  0  0  0  0  0  0
   23.4590   13.4430    3.1830 S   0  0  0  0  0  6  0  0  0  0  0  0
   22.1500   13.7520    3.7300 O   0  0  0  0  0  0  0  0  0  0  0  0
   23.5920   12.8540    1.8620 O   0  0  0  0  0  0  0  0  0  0  0  0
   24.3780   14.7940    3.2810 O   0  0  0  0  0  0  0  0  0  0  0  0
   25.2620   14.9050    4.3120 C   0  0  0  0  0  0  0  0  0  0  0  0
   24.8140   15.1580    5.6100 C   0  0  0  0  0  0  0  0  0  0  0  0
   25.7260   15.2660    6.6890 C   0  0  0  0  0  0  0  0  0  0  0  0
   25.2450   15.5530    8.0520 C   0  0  0  0  0  0  0  0  0  0  0  0
   24.0790   14.9180    8.5510 C   0  0  0  0  0  0  0  0  0  0  0  0
   23.6000   15.1740    9.8400 C   0  0  0  0  0  0  0  0  0  0  0  0
   24.3100   16.0690   10.6130 C   0  0  0  0  0  0  0  0  0  0  0  0
   25.4570   16.7100   10.1560 C   0  0  0  0  0  0  0  0  0  0  0  0
   25.9340   16.4640    8.8790 C   0  0  0  0  0  0  0  0  0  0  0  0
   25.9790   17.6280   11.2090 C   0  0  0  0  0  0  0  0  0  0  0  0
   25.0940   17.3620   12.3350 N   0  0  0  0  0  0  0  0  0  0  0  0
   25.1060   18.2080   13.5240 C   0  0  2  0  0  0  0  0  0  0  0  0
   25.6590   19.6110   13.2790 C   0  0  0  0  0  0  0  0  0  0  0  0
   25.5680   20.4200   14.5640 C   0  0  0  0  0  0  0  0  0  0  0  0
   26.2950   19.7340   15.6960 C   0  0  0  0  0  0  0  0  0  0  0  0
   26.7070   20.3500   16.6760 O   0  0  0  0  0  0  0  0  0  0  0  0
   26.4000   18.3680   15.6240 N   0  0  0  0  0  0  0  0  0  0  0  0
   25.8540   17.5270   14.6810 C   0  0  0  0  0  0  0  0  0  0  0  0
   25.8870   16.3080   14.8440 O   0  0  0  0  0  0  0  0  0  0  0  0
   24.0440   16.5270   11.9810 C   0  0  0  0  0  0  0  0  0  0  0  0
   23.0680   16.2200   12.6350 O   0  0  0  0  0  0  0  0  0  0  0  0
   27.1010   15.0990    6.4300 C   0  0  0  0  0  0  0  0  0  0  0  0
   27.5070   14.8320    5.1370 C   0  0  0  0  0  0  0  0  0  0  0  0
   26.6110   14.7260    4.1040 C   0  0  0  0  0  0  0  0  0  0  0  0
   27.2150   14.4570    2.9170 O   0  0  0  0  0  0  0  0  0  0  0  0
   28.6050   14.4690    3.3090 C   0  0  0  0  0  0  0  0  0  0  0  0
   28.7910   14.6520    4.7290 O   0  0  0  0  0  0  0  0  0  0  0  0
   24.7480   11.1720    3.8530 C   0  0  0  0  0  0  0  0  0  0  0  0
   25.2830   10.5640    4.8910 N   0  0  0  0  0  0  0  0  0  0  0  0
   24.8497    9.5640    8.8806 H   0  0  0  0  0  0  0  0  0  0  0  0
   23.8507    9.4948    7.3893 H   0  0  0  0  0  0  0  0  0  0  0  0
   25.5127    8.8135    7.3893 H   0  0  0  0  0  0  0  0  0  0  0  0
   25.0887   11.7316    8.0631 H   0  0  0  0  0  0  0  0  0  0  0  0
   26.5213   10.8908    7.3293 H   0  0  0  0  0  0  0  0  0  0  0  0
   23.8573   13.2695    6.2228 H   0  0  0  0  0  0  0  0  0  0  0  0
   23.7365   15.2753    5.7978 H   0  0  0  0  0  0  0  0  0  0  0  0
   23.5384   14.2071    7.9088 H   0  0  0  0  0  0  0  0  0  0  0  0
   22.6936   14.6814   10.2219 H   0  0  0  0  0  0  0  0  0  0  0  0
   26.8387   16.9728    8.5147 H   0  0  0  0  0  0  0  0  0  0  0  0
   27.0230   17.3898   11.4605 H   0  0  0  0  0  0  0  0  0  0  0  0
   25.9878   18.6841   10.9014 H   0  0  0  0  0  0  0  0  0  0  0  0
   24.0502   18.3393   13.8033 H   0  0  0  0  0  0  0  0  0  0  0  0
   26.7102   19.5413   12.9626 H   0  0  0  0  0  0  0  0  0  0  0  0
   25.0724   20.1053   12.4906 H   0  0  0  0  0  0  0  0  0  0  0  0
   26.0176   21.4099   14.3970 H   0  0  0  0  0  0  0  0  0  0  0  0
   24.5075   20.5162   14.8398 H   0  0  0  0  0  0  0  0  0  0  0  0
   26.9547   17.9171   16.3655 H   0  0  0  0  0  0  0  0  0  0  0  0
   27.8377   15.1798    7.2428 H   0  0  0  0  0  0  0  0  0  0  0  0
   29.0595   13.5108    3.0169 H   0  0  0  0  0  0  0  0  0  0  0  0
   29.0813   15.3217    2.8030 H   0  0  0  0  0  0  0  0  0  0  0  0
   24.8220   10.8194    2.8137 H   0  0  0  0  0  0  0  0  0  0  0  0
  1  2  1  0
  2  3  1  0
  3  4  2  0
  4  5  1  0
  5  6  1  0
  6  7  2  0
  6  8  2  0
  6  9  1  0
  9 10  1  0
 10 11  2  0
 11 12  1  0
 12 13  1  0
 13 14  2  0
 14 15  1  0
 15 16  2  0
 16 17  1  0
 17 18  2  0
 17 19  1  0
 19 20  1  0
 20 21  1  0
 21 22  1  0
 22 23  1  0
 23 24  1  0
 24 25  2  0
 24 26  1  0
 26 27  1  0
 27 28  2  0
 20 29  1  0
 29 30  2  0
 12 31  2  0
 31 32  1  0
 32 33  2  0
 33 34  1  0
 34 35  1  0
 35 36  1  0
  5 37  1  0
 37 38  2  0
 38  3  1  0
 33 10  1  0
 18 13  1  0
 27 21  1  0
 36 32  1  0
 29 16  1  0
  1 39  1  0
  1 40  1  0
  1 41  1  0
  2 42  1  0
  2 43  1  0
  4 44  1  0
 11 45  1  0
 14 46  1  0
 15 47  1  0
 18 48  1  0
 19 49  1  0
 19 50  1  0
 21 51  1  1
 22 52  1  0
 22 53  1  0
 23 54  1  0
 23 55  1  0
 26 56  1  0
 31 57  1  0
 35 58  1  0
 35 59  1  0
 37 60  1  0
M  END
>  <meeko>  (748) 
{"is_sidechain": [true], "free_energy": -11.56, "intermolecular_energy": 0.0, "internal_energy": -11.56, "cluster_size": 7, "cluster_id": 2, "rank_in_cluster": 1}

>  <_RMSD_MCS_to_ref>  (748) 
1.7850447436526924

$$$$
ligand
     RDKit          3D

 48 51  0  0  0  0  0  0  0  0999 V2000
   24.8710    9.6160    7.7820 C   0  0  0  0  0  0  0  0  0  0  0  0
   25.4240   10.9650    7.3490 C   0  0  0  0  0  0  0  0  0  0  0  0
   26.4270   11.4970    8.3110 C   0  0  0  0  0  0  0  0  0  0  0  0
   27.1610   12.6640    8.2400 C   0  0  0  0  0  0  0  0  0  0  0  0
   27.9040   12.6650    9.3850 N   0  0  0  0  0  0  0  0  0  0  0  0
   29.1810   13.7070    9.7490 S   0  0  0  0  0  6  0  0  0  0  0  0
   29.8940   13.8500    8.4930 O   0  0  0  0  0  0  0  0  0  0  0  0
   29.8300   13.1320   10.9120 O   0  0  0  0  0  0  0  0  0  0  0  0
   28.5340   15.1520   10.1110 O   0  0  0  0  0  0  0  0  0  0  0  0
   27.2300   15.4460    9.9980 C   0  0  0  0  0  0  0  0  0  0  0  0
   26.8000   15.2830    8.5880 C   0  0  0  0  0  0  0  0  0  0  0  0
   25.4930   15.5040    8.3760 C   0  0  0  0  0  0  0  0  0  0  0  0
   24.6590   15.8870    9.4250 N   0  0  0  0  0  0  0  0  0  0  0  0
   23.3350   16.1490    9.3810 N   0  0  0  0  0  0  0  0  0  0  0  0
   23.0330   16.5370   10.6210 C   0  0  0  0  0  0  0  0  0  0  0  0
   24.1380   16.5160   11.4970 C   0  0  0  0  0  0  0  0  0  0  0  0
   24.1620   16.9110   12.8930 C   0  0  0  0  0  0  0  0  0  0  0  0
   23.1920   16.7610   13.6280 O   0  0  0  0  0  0  0  0  0  0  0  0
   25.3460   17.4810   13.3170 N   0  0  0  0  0  0  0  0  0  0  0  0
   25.3880   18.2660   14.5390 C   0  0  1  0  0  0  0  0  0  0  0  0
   26.3210   17.6270   15.5600 C   0  0  0  0  0  0  0  0  0  0  0  0
   26.3530   18.4750   16.8210 C   0  0  0  0  0  0  0  0  0  0  0  0
   26.7440   19.9010   16.5150 C   0  0  0  0  0  0  0  0  0  0  0  0
   27.3940   20.5870   17.2970 O   0  0  0  0  0  0  0  0  0  0  0  0
   26.3090   20.4140   15.3180 N   0  0  0  0  0  0  0  0  0  0  0  0
   25.8860   19.6870   14.2310 C   0  0  0  0  0  0  0  0  0  0  0  0
   25.9110   20.1750   13.1030 O   0  0  0  0  0  0  0  0  0  0  0  0
   25.1780   16.0520   10.7160 C   0  0  0  0  0  0  0  0  0  0  0  0
   26.4950   15.7940   11.0040 N   0  0  0  0  0  0  0  0  0  0  0  0
   27.6630   11.5170   10.0700 C   0  0  0  0  0  0  0  0  0  0  0  0
   26.7540   10.7930    9.4520 N   0  0  0  0  0  0  0  0  0  0  0  0
   24.8497    9.5640    8.8806 H   0  0  0  0  0  0  0  0  0  0  0  0
   23.8507    9.4948    7.3893 H   0  0  0  0  0  0  0  0  0  0  0  0
   25.5127    8.8135    7.3893 H   0  0  0  0  0  0  0  0  0  0  0  0
   25.9023   10.8523    6.3648 H   0  0  0  0  0  0  0  0  0  0  0  0
   24.5856   11.6759    7.3080 H   0  0  0  0  0  0  0  0  0  0  0  0
   27.1497   13.4210    7.4420 H   0  0  0  0  0  0  0  0  0  0  0  0
   27.4949   15.0040    7.7822 H   0  0  0  0  0  0  0  0  0  0  0  0
   25.0765   15.3817    7.3653 H   0  0  0  0  0  0  0  0  0  0  0  0
   22.0225   16.8429   10.9296 H   0  0  0  0  0  0  0  0  0  0  0  0
   26.2047   17.3489   12.7637 H   0  0  0  0  0  0  0  0  0  0  0  0
   24.3706   18.3053   14.9552 H   0  0  0  0  0  0  0  0  0  0  0  0
   25.9586   16.6180   15.8063 H   0  0  0  0  0  0  0  0  0  0  0  0
   27.3347   17.5609   15.1380 H   0  0  0  0  0  0  0  0  0  0  0  0
   25.3544   18.4686   17.2822 H   0  0  0  0  0  0  0  0  0  0  0  0
   27.1014   18.0497   17.5058 H   0  0  0  0  0  0  0  0  0  0  0  0
   26.2987   21.4398   15.2260 H   0  0  0  0  0  0  0  0  0  0  0  0
   28.1584   11.2322   11.0100 H   0  0  0  0  0  0  0  0  0  0  0  0
  1  2  1  0
  2  3  1  0
  3  4  2  0
  4  5  1  0
  5  6  1  0
  6  7  2  0
  6  8  2  0
  6  9  1  0
  9 10  1  0
 10 11  1  0
 11 12  2  0
 12 13  1  0
 13 14  1  0
 14 15  2  0
 15 16  1  0
 16 17  1  0
 17 18  2  0
 17 19  1  0
 19 20  1  0
 20 21  1  0
 21 22  1  0
 22 23  1  0
 23 24  2  0
 23 25  1  0
 25 26  1  0
 26 27  2  0
 16 28  2  0
 28 29  1  0
  5 30  1  0
 30 31  2  0
 31  3  1  0
 29 10  2  0
 28 13  1  0
 26 20  1  0
  1 32  1  0
  1 33  1  0
  1 34  1  0
  2 35  1  0
  2 36  1  0
  4 37  1  0
 11 38  1  0
 12 39  1  0
 15 40  1  0
 19 41  1  0
 20 42  1  1
 21 43  1  0
 21 44  1  0
 22 45  1  0
 22 46  1  0
 25 47  1  0
 30 48  1  0
M  END
>  <meeko>  (749) 
{"is_sidechain": [true], "free_energy": -11.56, "intermolecular_energy": 0.0, "internal_energy": -11.56, "cluster_size": 18, "cluster_id": 1, "rank_in_cluster": 1}

>  <_RMSD_MCS_to_ref>  (749) 
0.7092870442290004

$$$$
ligand
     RDKit          3D

 48 51  0  0  0  0  0  0  0  0999 V2000
   24.8710    9.6160    7.7820 C   0  0  0  0  0  0  0  0  0  0  0  0
   25.4240   10.9650    7.3490 C   0  0  0  0  0  0  0  0  0  0  0  0
   26.4880   11.4570    8.2660 C   0  0  0  0  0  0  0  0  0  0  0  0
   27.3440   12.5300    8.1090 C   0  0  0  0  0  0  0  0  0  0  0  0
   28.1260   12.5020    9.2290 N   0  0  0  0  0  0  0  0  0  0  0  0
   29.1990   13.7110    9.7120 S   0  0  0  0  0  6  0  0  0  0  0  0
   29.8280   13.1720   10.9040 O   0  0  0  0  0  0  0  0  0  0  0  0
   29.9630   14.0040    8.5100 O   0  0  0  0  0  0  0  0  0  0  0  0
   28.2560   14.9890   10.1140 O   0  0  0  0  0  0  0  0  0  0  0  0
   27.0880   15.2710    9.5260 C   0  0  0  0  0  0  0  0  0  0  0  0
   26.7120   15.1570    8.2030 C   0  0  0  0  0  0  0  0  0  0  0  0
   25.4120   15.5540    8.0080 N   0  0  0  0  0  0  0  0  0  0  0  0
   24.9900   15.9400    9.1920 C   0  0  0  0  0  0  0  0  0  0  0  0
   23.7470   16.4680    9.6120 C   0  0  0  0  0  0  0  0  0  0  0  0
   23.5830   16.8340   10.8900 C   0  0  0  0  0  0  0  0  0  0  0  0
   24.7480   16.6550   11.7970 C   0  0  0  0  0  0  0  0  0  0  0  0
   24.5850   17.1100   13.2510 C   0  0  0  0  0  0  0  0  0  0  0  0
   23.5240   16.9730   13.8380 O   0  0  0  0  0  0  0  0  0  0  0  0
   25.7300   17.6800   13.7680 N   0  0  0  0  0  0  0  0  0  0  0  0
   25.6760   18.5020   14.9610 C   0  0  1  0  0  0  0  0  0  0  0  0
   26.6770   18.0080   15.9980 C   0  0  0  0  0  0  0  0  0  0  0  0
   26.6130   18.8950   17.2300 C   0  0  0  0  0  0  0  0  0  0  0  0
   26.8470   20.3440   16.8730 C   0  0  0  0  0  0  0  0  0  0  0  0
   27.4230   21.1230   17.6270 O   0  0  0  0  0  0  0  0  0  0  0  0
   26.3530   20.7660   15.6640 N   0  0  0  0  0  0  0  0  0  0  0  0
   25.9990   19.9630   14.6060 C   0  0  0  0  0  0  0  0  0  0  0  0
   25.9380   20.4230   13.4660 O   0  0  0  0  0  0  0  0  0  0  0  0
   25.9010   16.1550   11.4610 N   0  0  0  0  0  0  0  0  0  0  0  0
   25.9780   15.8010   10.1540 N   0  0  0  0  0  0  0  0  0  0  0  0
   27.6930   11.5090   10.0470 C   0  0  0  0  0  0  0  0  0  0  0  0
   26.7150   10.8350    9.4780 N   0  0  0  0  0  0  0  0  0  0  0  0
   24.8497    9.5640    8.8806 H   0  0  0  0  0  0  0  0  0  0  0  0
   23.8507    9.4948    7.3893 H   0  0  0  0  0  0  0  0  0  0  0  0
   25.5127    8.8135    7.3893 H   0  0  0  0  0  0  0  0  0  0  0  0
   25.8454   10.8670    6.3377 H   0  0  0  0  0  0  0  0  0  0  0  0
   24.5979   11.6911    7.3699 H   0  0  0  0  0  0  0  0  0  0  0  0
   27.3863   13.2438    7.2732 H   0  0  0  0  0  0  0  0  0  0  0  0
   27.3728   14.7927    7.4026 H   0  0  0  0  0  0  0  0  0  0  0  0
   22.9207   16.5773    8.8942 H   0  0  0  0  0  0  0  0  0  0  0  0
   22.6304   17.2480   11.2521 H   0  0  0  0  0  0  0  0  0  0  0  0
   26.6339   17.5197   13.3009 H   0  0  0  0  0  0  0  0  0  0  0  0
   24.6610   18.4360   15.3798 H   0  0  0  0  0  0  0  0  0  0  0  0
   26.4327   16.9729   16.2789 H   0  0  0  0  0  0  0  0  0  0  0  0
   27.6912   18.0443   15.5736 H   0  0  0  0  0  0  0  0  0  0  0  0
   25.6200   18.7953   17.6926 H   0  0  0  0  0  0  0  0  0  0  0  0
   27.4005   18.5771   17.9292 H   0  0  0  0  0  0  0  0  0  0  0  0
   26.2364   21.7815   15.5374 H   0  0  0  0  0  0  0  0  0  0  0  0
   28.1020   11.2968   11.0459 H   0  0  0  0  0  0  0  0  0  0  0  0
  1  2  1  0
  2  3  1  0
  3  4  2  0
  4  5  1  0
  5  6  1  0
  6  7  2  0
  6  8  2  0
  6  9  1  0
  9 10  1  0
 10 11  2  0
 11 12  1  0
 12 13  2  0
 13 14  1  0
 14 15  2  0
 15 16  1  0
 16 17  1  0
 17 18  2  0
 17 19  1  0
 19 20  1  0
 20 21  1  0
 21 22  1  0
 22 23  1  0
 23 24  2  0
 23 25  1  0
 25 26  1  0
 26 27  2  0
 16 28  2  0
 28 29  1  0
  5 30  1  0
 30 31  2  0
 31  3  1  0
 29 10  1  0
 29 13  1  0
 26 20  1  0
  1 32  1  0
  1 33  1  0
  1 34  1  0
  2 35  1  0
  2 36  1  0
  4 37  1  0
 11 38  1  0
 14 39  1  0
 15 40  1  0
 19 41  1  0
 20 42  1  1
 21 43  1  0
 21 44  1  0
 22 45  1  0
 22 46  1  0
 25 47  1  0
 30 48  1  0
M  END
>  <meeko>  (750) 
{"is_sidechain": [true], "free_energy": -11.56, "intermolecular_energy": 0.0, "internal_energy": -11.56, "cluster_size": 4, "cluster_id": 1, "rank_in_cluster": 1}

>  <_RMSD_MCS_to_ref>  (750) 
1.038431188540354

$$$$
ligand
     RDKit          3D

 51 54  0  0  0  0  0  0  0  0999 V2000
   24.8710    9.6160    7.7820 C   0  0  0  0  0  0  0  0  0  0  0  0
   25.4240   10.9650    7.3490 C   0  0  0  0  0  0  0  0  0  0  0  0
   26.7570   11.2440    7.9490 C   0  0  0  0  0  0  0  0  0  0  0  0
   27.0670   11.9660    9.0850 C   0  0  0  0  0  0  0  0  0  0  0  0
   28.4250   11.8670    9.1850 N   0  0  0  0  0  0  0  0  0  0  0  0
   29.4000   12.7510   10.2360 S   0  0  0  0  0  6  0  0  0  0  0  0
   30.7520   12.5670    9.7400 O   0  0  0  0  0  0  0  0  0  0  0  0
   29.0190   12.3110   11.5640 O   0  0  0  0  0  0  0  0  0  0  0  0
   28.9670   14.3140   10.0500 O   0  0  0  0  0  0  0  0  0  0  0  0
   27.6650   14.7310    9.9090 C   0  0  0  0  0  0  0  0  0  0  0  0
   26.8940   15.2790   10.8640 C   0  0  0  0  0  0  0  0  0  0  0  0
   25.5150   15.7050   10.5610 C   0  0  0  0  0  0  0  0  0  0  0  0
   24.6630   16.3320   11.4820 C   0  0  0  0  0  0  0  0  0  0  0  0
   25.0640   16.7480   12.8390 C   0  0  0  0  0  0  0  0  0  0  0  0
   25.4630   15.9200   13.6450 O   0  0  0  0  0  0  0  0  0  0  0  0
   24.9150   18.0860   13.1220 N   0  0  0  0  0  0  0  0  0  0  0  0
   25.1990   18.6300   14.4440 C   0  0  1  0  0  0  0  0  0  0  0  0
   26.3700   17.9160   15.1120 C   0  0  0  0  0  0  0  0  0  0  0  0
   26.6550   18.5620   16.4590 C   0  0  0  0  0  0  0  0  0  0  0  0
   26.9100   20.0430   16.3140 C   0  0  0  0  0  0  0  0  0  0  0  0
   27.6980   20.6500   17.0320 O   0  0  0  0  0  0  0  0  0  0  0  0
   26.1860   20.7000   15.3510 N   0  0  0  0  0  0  0  0  0  0  0  0
   25.5410   20.1150   14.2900 C   0  0  0  0  0  0  0  0  0  0  0  0
   25.2490   20.7630   13.2840 O   0  0  0  0  0  0  0  0  0  0  0  0
   23.3470   16.5900   11.1070 C   0  0  0  0  0  0  0  0  0  0  0  0
   22.8430   16.3170    9.8790 N   0  0  0  0  0  0  0  0  0  0  0  0
   23.6880   15.7510    8.9860 C   0  0  0  0  0  0  0  0  0  0  0  0
   25.0060   15.4320    9.2850 C   0  0  0  0  0  0  0  0  0  0  0  0
   25.8750   14.8200    8.2610 C   0  0  0  0  0  0  0  0  0  0  0  0
   25.4720   14.5880    7.1280 O   0  0  0  0  0  0  0  0  0  0  0  0
   27.1620   14.5300    8.6520 N   0  0  0  0  0  0  0  0  0  0  0  0
   28.9020   11.1880    8.1110 C   0  0  0  0  0  0  0  0  0  0  0  0
   27.9100   10.7740    7.3510 N   0  0  0  0  0  0  0  0  0  0  0  0
   24.8497    9.5640    8.8806 H   0  0  0  0  0  0  0  0  0  0  0  0
   23.8507    9.4948    7.3893 H   0  0  0  0  0  0  0  0  0  0  0  0
   25.5127    8.8135    7.3893 H   0  0  0  0  0  0  0  0  0  0  0  0
   25.5198   10.9736    6.2532 H   0  0  0  0  0  0  0  0  0  0  0  0
   24.7277   11.7428    7.6957 H   0  0  0  0  0  0  0  0  0  0  0  0
   26.3772   12.4990    9.7559 H   0  0  0  0  0  0  0  0  0  0  0  0
   27.2949   15.4108   11.8798 H   0  0  0  0  0  0  0  0  0  0  0  0
   24.5934   18.7217   12.3781 H   0  0  0  0  0  0  0  0  0  0  0  0
   24.3121   18.4871   15.0788 H   0  0  0  0  0  0  0  0  0  0  0  0
   26.1170   16.8557   15.2599 H   0  0  0  0  0  0  0  0  0  0  0  0
   27.2610   17.9942   14.4717 H   0  0  0  0  0  0  0  0  0  0  0  0
   25.7885   18.4106   17.1195 H   0  0  0  0  0  0  0  0  0  0  0  0
   27.5552   18.0947   16.8847 H   0  0  0  0  0  0  0  0  0  0  0  0
   26.1207   21.7248   15.4317 H   0  0  0  0  0  0  0  0  0  0  0  0
   22.6763   17.0425   11.8522 H   0  0  0  0  0  0  0  0  0  0  0  0
   23.3128   15.5333    7.9751 H   0  0  0  0  0  0  0  0  0  0  0  0
   27.7954   14.1311    7.9445 H   0  0  0  0  0  0  0  0  0  0  0  0
   29.9675   11.0088    7.9046 H   0  0  0  0  0  0  0  0  0  0  0  0
  1  2  1  0
  2  3  1  0
  3  4  2  0
  4  5  1  0
  5  6  1  0
  6  7  2  0
  6  8  2  0
  6  9  1  0
  9 10  1  0
 10 11  2  0
 11 12  1  0
 12 13  2  0
 13 14  1  0
 14 15  2  0
 14 16  1  0
 16 17  1  0
 17 18  1  0
 18 19  1  0
 19 20  1  0
 20 21  2  0
 20 22  1  0
 22 23  1  0
 23 24  2  0
 13 25  1  0
 25 26  2  0
 26 27  1  0
 27 28  2  0
 28 29  1  0
 29 30  2  0
 29 31  1  0
  5 32  1  0
 32 33  2  0
 33  3  1  0
 31 10  1  0
 28 12  1  0
 23 17  1  0
  1 34  1  0
  1 35  1  0
  1 36  1  0
  2 37  1  0
  2 38  1  0
  4 39  1  0
 11 40  1  0
 16 41  1  0
 17 42  1  1
 18 43  1  0
 18 44  1  0
 19 45  1  0
 19 46  1  0
 22 47  1  0
 25 48  1  0
 27 49  1  0
 31 50  1  0
 32 51  1  0
M  END
>  <meeko>  (751) 
{"is_sidechain": [true], "free_energy": -11.56, "intermolecular_energy": 0.0, "internal_energy": -11.56, "cluster_size": 14, "cluster_id": 1, "rank_in_cluster": 1}

>  <_RMSD_MCS_to_ref>  (751) 
0.6916253802938893

$$$$
ligand
     RDKit          3D

 61 66  0  0  0  0  0  0  0  0999 V2000
   24.8540    9.4020    7.6050 C   0  0  0  0  0  0  0  0  0  0  0  0
   25.5230   10.7550    7.4270 C   0  0  0  0  0  0  0  0  0  0  0  0
   25.0030   11.4900    6.2420 C   0  0  0  0  0  0  0  0  0  0  0  0
   25.2090   12.8080    5.8810 C   0  0  0  0  0  0  0  0  0  0  0  0
   24.4700   12.9610    4.7420 N   0  0  0  0  0  0  0  0  0  0  0  0
   24.4400   14.3120    3.7470 S   0  0  0  0  0  6  0  0  0  0  0  0
   23.6820   15.3270    4.4560 O   0  0  0  0  0  0  0  0  0  0  0  0
   23.9920   13.7910    2.4670 O   0  0  0  0  0  0  0  0  0  0  0  0
   26.0770   14.9270    3.5260 C   0  0  0  0  0  0  0  0  0  0  0  0
   26.6470   14.7600    2.2510 C   0  0  0  0  0  0  0  0  0  0  0  0
   27.9200   15.2470    1.9910 C   0  0  0  0  0  0  0  0  0  0  0  0
   28.6140   15.9010    3.0020 C   0  0  0  0  0  0  0  0  0  0  0  0
   28.0380   16.0670    4.2730 C   0  0  0  0  0  0  0  0  0  0  0  0
   28.7420   16.7260    5.2850 C   0  0  0  0  0  0  0  0  0  0  0  0
   28.1770   16.8680    6.5470 C   0  0  0  0  0  0  0  0  0  0  0  0
   26.9110   16.3490    6.7760 C   0  0  0  0  0  0  0  0  0  0  0  0
   26.2540   16.3860    8.1000 C   0  0  0  0  0  0  0  0  0  0  0  0
   25.0700   15.6470    8.3650 C   0  0  0  0  0  0  0  0  0  0  0  0
   24.4160   15.7160    9.6010 C   0  0  0  0  0  0  0  0  0  0  0  0
   24.9550   16.5500   10.5570 C   0  0  0  0  0  0  0  0  0  0  0  0
   26.1100   17.2890   10.3390 C   0  0  0  0  0  0  0  0  0  0  0  0
   26.7750   17.2020    9.1260 C   0  0  0  0  0  0  0  0  0  0  0  0
   26.4320   18.1070   11.5420 C   0  0  0  0  0  0  0  0  0  0  0  0
   25.3070   17.8270   12.4250 N   0  0  0  0  0  0  0  0  0  0  0  0
   25.3040   18.2760   13.8110 C   0  0  1  0  0  0  0  0  0  0  0  0
   26.2950   17.5270   14.7010 C   0  0  0  0  0  0  0  0  0  0  0  0
   26.1700   18.0290   16.1300 C   0  0  0  0  0  0  0  0  0  0  0  0
   26.3870   19.5230   16.2050 C   0  0  0  0  0  0  0  0  0  0  0  0
   26.7520   20.0800   17.2370 O   0  0  0  0  0  0  0  0  0  0  0  0
   26.0750   20.2490   15.0840 N   0  0  0  0  0  0  0  0  0  0  0  0
   25.5350   19.7920   13.9020 C   0  0  0  0  0  0  0  0  0  0  0  0
   25.1740   20.5890   13.0370 O   0  0  0  0  0  0  0  0  0  0  0  0
   24.4720   16.8490   11.9090 C   0  0  0  0  0  0  0  0  0  0  0  0
   23.5240   16.3030   12.4400 O   0  0  0  0  0  0  0  0  0  0  0  0
   26.2050   15.7370    5.7860 N   0  0  0  0  0  0  0  0  0  0  0  0
   26.7460   15.5770    4.5600 C   0  0  0  0  0  0  0  0  0  0  0  0
   23.9410   11.7580    4.3950 C   0  0  0  0  0  0  0  0  0  0  0  0
   24.2150   10.8460    5.3060 N   0  0  0  0  0  0  0  0  0  0  0  0
   24.7464    9.1845    8.6779 H   0  0  0  0  0  0  0  0  0  0  0  0
   23.8606    9.4192    7.1330 H   0  0  0  0  0  0  0  0  0  0  0  0
   25.4708    8.6230    7.1330 H   0  0  0  0  0  0  0  0  0  0  0  0
   25.3411   11.3608    8.3270 H   0  0  0  0  0  0  0  0  0  0  0  0
   26.5979   10.5812    7.2705 H   0  0  0  0  0  0  0  0  0  0  0  0
   25.8262   13.5609    6.3930 H   0  0  0  0  0  0  0  0  0  0  0  0
   26.0836   14.2433    1.4600 H   0  0  0  0  0  0  0  0  0  0  0  0
   28.3740   15.1171    0.9975 H   0  0  0  0  0  0  0  0  0  0  0  0
   29.6232   16.2922    2.8056 H   0  0  0  0  0  0  0  0  0  0  0  0
   29.7439   17.1325    5.0825 H   0  0  0  0  0  0  0  0  0  0  0  0
   28.7243   17.3830    7.3503 H   0  0  0  0  0  0  0  0  0  0  0  0
   24.6551   15.0020    7.5764 H   0  0  0  0  0  0  0  0  0  0  0  0
   23.5081   15.1280    9.8012 H   0  0  0  0  0  0  0  0  0  0  0  0
   27.7050   17.7668    8.9641 H   0  0  0  0  0  0  0  0  0  0  0  0
   27.3822   17.7892   11.9960 H   0  0  0  0  0  0  0  0  0  0  0  0
   26.5611   19.1771   11.3226 H   0  0  0  0  0  0  0  0  0  0  0  0
   24.3019   18.0401   14.1985 H   0  0  0  0  0  0  0  0  0  0  0  0
   26.0745   16.4498   14.6699 H   0  0  0  0  0  0  0  0  0  0  0  0
   27.3188   17.7017   14.3386 H   0  0  0  0  0  0  0  0  0  0  0  0
   25.1637   17.7932   16.5065 H   0  0  0  0  0  0  0  0  0  0  0  0
   26.9386   17.5340   16.7418 H   0  0  0  0  0  0  0  0  0  0  0  0
   26.2681   21.2596   15.1318 H   0  0  0  0  0  0  0  0  0  0  0  0
   23.3627   11.5710    3.4782 H   0  0  0  0  0  0  0  0  0  0  0  0
  1  2  1  0
  2  3  1  0
  3  4  2  0
  4  5  1  0
  5  6  1  0
  6  7  2  0
  6  8  2  0
  6  9  1  0
  9 10  2  0
 10 11  1  0
 11 12  2  0
 12 13  1  0
 13 14  2  0
 14 15  1  0
 15 16  2  0
 16 17  1  0
 17 18  2  0
 18 19  1  0
 19 20  2  0
 20 21  1  0
 21 22  2  0
 21 23  1  0
 23 24  1  0
 24 25  1  0
 25 26  1  0
 26 27  1  0
 27 28  1  0
 28 29  2  0
 28 30  1  0
 30 31  1  0
 31 32  2  0
 24 33  1  0
 33 34  2  0
 16 35  1  0
 35 36  2  0
  5 37  1  0
 37 38  2  0
 38  3  1  0
 36  9  1  0
 36 13  1  0
 22 17  1  0
 31 25  1  0
 33 20  1  0
  1 39  1  0
  1 40  1  0
  1 41  1  0
  2 42  1  0
  2 43  1  0
  4 44  1  0
 10 45  1  0
 11 46  1  0
 12 47  1  0
 14 48  1  0
 15 49  1  0
 18 50  1  0
 19 51  1  0
 22 52  1  0
 23 53  1  0
 23 54  1  0
 25 55  1  1
 26 56  1  0
 26 57  1  0
 27 58  1  0
 27 59  1  0
 30 60  1  0
 37 61  1  0
M  END
>  <meeko>  (752) 
{"is_sidechain": [true], "free_energy": -11.55, "intermolecular_energy": 0.0, "internal_energy": -11.55, "cluster_size": 4, "cluster_id": 2, "rank_in_cluster": 1}

>  <_RMSD_MCS_to_ref>  (752) 
0.8578443267218641

$$$$
ligand
     RDKit          3D

 60 65  0  0  0  0  0  0  0  0999 V2000
   24.8540    9.4020    7.6050 C   0  0  0  0  0  0  0  0  0  0  0  0
   25.5230   10.7550    7.4270 C   0  0  0  0  0  0  0  0  0  0  0  0
   25.6790   11.1210    5.9930 C   0  0  0  0  0  0  0  0  0  0  0  0
   24.7140   11.2170    5.0090 C   0  0  0  0  0  0  0  0  0  0  0  0
   25.4150   11.5480    3.8840 N   0  0  0  0  0  0  0  0  0  0  0  0
   24.7460   12.0390    2.4190 S   0  0  0  0  0  6  0  0  0  0  0  0
   23.4570   11.3750    2.3550 O   0  0  0  0  0  0  0  0  0  0  0  0
   25.7790   11.7840    1.4320 O   0  0  0  0  0  0  0  0  0  0  0  0
   24.5120   13.6490    2.5440 O   0  0  0  0  0  0  0  0  0  0  0  0
   24.6070   14.3430    3.7260 C   0  0  0  0  0  0  0  0  0  0  0  0
   25.2010   15.6680    3.5870 C   0  0  0  0  0  0  0  0  0  0  0  0
   25.3690   16.4840    4.6450 C   0  0  0  0  0  0  0  0  0  0  0  0
   24.9630   16.0530    5.9390 C   0  0  0  0  0  0  0  0  0  0  0  0
   25.0160   16.6450    7.1120 N   0  0  0  0  0  0  0  0  0  0  0  0
   24.4770   15.7460    8.0090 C   0  0  0  0  0  0  0  0  0  0  0  0
   24.3580   16.0290    9.4340 C   0  0  0  0  0  0  0  0  0  0  0  0
   23.2730   15.5470   10.2050 C   0  0  0  0  0  0  0  0  0  0  0  0
   23.1730   15.8260   11.5730 C   0  0  0  0  0  0  0  0  0  0  0  0
   24.1700   16.5920   12.1410 C   0  0  0  0  0  0  0  0  0  0  0  0
   25.2490   17.0800   11.4110 C   0  0  0  0  0  0  0  0  0  0  0  0
   25.3560   16.8050   10.0560 C   0  0  0  0  0  0  0  0  0  0  0  0
   26.1640   17.8510   12.3000 C   0  0  0  0  0  0  0  0  0  0  0  0
   25.4530   17.8370   13.5730 N   0  0  0  0  0  0  0  0  0  0  0  0
   26.0530   18.2560   14.8340 C   0  0  2  0  0  0  0  0  0  0  0  0
   25.0080   18.6120   15.8870 C   0  0  0  0  0  0  0  0  0  0  0  0
   25.7050   18.9470   17.1980 C   0  0  0  0  0  0  0  0  0  0  0  0
   26.7160   20.0550   17.0090 C   0  0  0  0  0  0  0  0  0  0  0  0
   26.9290   20.9030   17.8710 O   0  0  0  0  0  0  0  0  0  0  0  0
   27.4070   20.0590   15.8250 N   0  0  0  0  0  0  0  0  0  0  0  0
   27.0100   19.4470   14.6570 C   0  0  0  0  0  0  0  0  0  0  0  0
   27.4130   19.8630   13.5730 O   0  0  0  0  0  0  0  0  0  0  0  0
   24.3210   17.0360   13.5300 C   0  0  0  0  0  0  0  0  0  0  0  0
   23.5770   16.7400   14.4450 O   0  0  0  0  0  0  0  0  0  0  0  0
   24.0920   14.5910    7.3600 C   0  0  0  0  0  0  0  0  0  0  0  0
   24.4010   14.7870    6.0370 N   0  0  0  0  0  0  0  0  0  0  0  0
   24.2210   13.9330    4.9510 C   0  0  0  0  0  0  0  0  0  0  0  0
   26.7210   11.7220    4.2090 C   0  0  0  0  0  0  0  0  0  0  0  0
   26.9210   11.4460    5.4810 N   0  0  0  0  0  0  0  0  0  0  0  0
   24.7464    9.1845    8.6779 H   0  0  0  0  0  0  0  0  0  0  0  0
   23.8606    9.4192    7.1330 H   0  0  0  0  0  0  0  0  0  0  0  0
   25.4708    8.6230    7.1330 H   0  0  0  0  0  0  0  0  0  0  0  0
   24.9097   11.5214    7.9235 H   0  0  0  0  0  0  0  0  0  0  0  0
   26.5275   10.6960    7.8715 H   0  0  0  0  0  0  0  0  0  0  0  0
   23.6295   11.0623    5.1085 H   0  0  0  0  0  0  0  0  0  0  0  0
   25.5202   16.0098    2.5914 H   0  0  0  0  0  0  0  0  0  0  0  0
   25.8180   17.4790    4.5096 H   0  0  0  0  0  0  0  0  0  0  0  0
   22.4934   14.9415    9.7196 H   0  0  0  0  0  0  0  0  0  0  0  0
   22.3314   15.4488   12.1725 H   0  0  0  0  0  0  0  0  0  0  0  0
   26.2081   17.1874    9.4749 H   0  0  0  0  0  0  0  0  0  0  0  0
   27.1434   17.3578   12.3863 H   0  0  0  0  0  0  0  0  0  0  0  0
   26.3832   18.8639   11.9312 H   0  0  0  0  0  0  0  0  0  0  0  0
   26.6264   17.3851   15.1844 H   0  0  0  0  0  0  0  0  0  0  0  0
   24.4267   19.4820   15.5477 H   0  0  0  0  0  0  0  0  0  0  0  0
   24.3325   17.7571   16.0380 H   0  0  0  0  0  0  0  0  0  0  0  0
   24.9525   19.2688   17.9330 H   0  0  0  0  0  0  0  0  0  0  0  0
   26.2326   18.0493   17.5527 H   0  0  0  0  0  0  0  0  0  0  0  0
   28.3038   20.5653   15.8075 H   0  0  0  0  0  0  0  0  0  0  0  0
   23.6327   13.6983    7.8095 H   0  0  0  0  0  0  0  0  0  0  0  0
   23.7707   12.9392    5.0909 H   0  0  0  0  0  0  0  0  0  0  0  0
   27.5033   12.0481    3.5078 H   0  0  0  0  0  0  0  0  0  0  0  0
  1  2  1  0
  2  3  1  0
  3  4  2  0
  4  5  1  0
  5  6  1  0
  6  7  2  0
  6  8  2  0
  6  9  1  0
  9 10  1  0
 10 11  1  0
 11 12  2  0
 12 13  1  0
 13 14  2  0
 14 15  1  0
 15 16  1  0
 16 17  2  0
 17 18  1  0
 18 19  2  0
 19 20  1  0
 20 21  2  0
 20 22  1  0
 22 23  1  0
 23 24  1  0
 24 25  1  0
 25 26  1  0
 26 27  1  0
 27 28  2  0
 27 29  1  0
 29 30  1  0
 30 31  2  0
 23 32  1  0
 32 33  2  0
 15 34  2  0
 34 35  1  0
 35 36  1  0
  5 37  1  0
 37 38  2  0
 38  3  1  0
 36 10  2  0
 35 13  1  0
 21 16  1  0
 30 24  1  0
 32 19  1  0
  1 39  1  0
  1 40  1  0
  1 41  1  0
  2 42  1  0
  2 43  1  0
  4 44  1  0
 11 45  1  0
 12 46  1  0
 17 47  1  0
 18 48  1  0
 21 49  1  0
 22 50  1  0
 22 51  1  0
 24 52  1  1
 25 53  1  0
 25 54  1  0
 26 55  1  0
 26 56  1  0
 29 57  1  0
 34 58  1  0
 36 59  1  0
 37 60  1  0
M  END
>  <meeko>  (753) 
{"is_sidechain": [true], "free_energy": -11.55, "intermolecular_energy": 0.0, "internal_energy": -11.55, "cluster_size": 12, "cluster_id": 1, "rank_in_cluster": 1}

>  <_RMSD_MCS_to_ref>  (753) 
1.5037438833347467

$$$$
ligand
     RDKit          3D

 59 64  0  0  0  0  0  0  0  0999 V2000
   24.8540    9.4020    7.6050 C   0  0  0  0  0  0  0  0  0  0  0  0
   25.5230   10.7550    7.4270 C   0  0  0  0  0  0  0  0  0  0  0  0
   25.4280   11.2490    6.0270 C   0  0  0  0  0  0  0  0  0  0  0  0
   26.2780   12.0970    5.3450 C   0  0  0  0  0  0  0  0  0  0  0  0
   25.6980   12.2370    4.1160 N   0  0  0  0  0  0  0  0  0  0  0  0
   26.4060   12.9700    2.7740 S   0  0  0  0  0  6  0  0  0  0  0  0
   25.4080   12.8620    1.7270 O   0  0  0  0  0  0  0  0  0  0  0  0
   27.7090   12.3430    2.6510 O   0  0  0  0  0  0  0  0  0  0  0  0
   26.6140   14.5400    3.1760 O   0  0  0  0  0  0  0  0  0  0  0  0
   26.3050   14.9130    4.4560 C   0  0  0  0  0  0  0  0  0  0  0  0
   25.0200   15.3240    4.8130 C   0  0  0  0  0  0  0  0  0  0  0  0
   24.7390   15.7170    6.1270 C   0  0  0  0  0  0  0  0  0  0  0  0
   25.7350   15.7200    7.1290 C   0  0  0  0  0  0  0  0  0  0  0  0
   25.4500   16.1200    8.5080 C   0  0  0  0  0  0  0  0  0  0  0  0
   24.1930   15.8220    9.0920 C   0  0  0  0  0  0  0  0  0  0  0  0
   23.8970   16.1870   10.4090 C   0  0  0  0  0  0  0  0  0  0  0  0
   24.8770   16.8500   11.1180 C   0  0  0  0  0  0  0  0  0  0  0  0
   26.1240   17.1520   10.5770 C   0  0  0  0  0  0  0  0  0  0  0  0
   26.4240   16.7920    9.2730 C   0  0  0  0  0  0  0  0  0  0  0  0
   26.9700   17.8390   11.5960 C   0  0  0  0  0  0  0  0  0  0  0  0
   26.0550   17.9860   12.7210 N   0  0  0  0  0  0  0  0  0  0  0  0
   26.4840   18.3750   14.0610 C   0  0  2  0  0  0  0  0  0  0  0  0
   26.1190   17.3360   15.1160 C   0  0  0  0  0  0  0  0  0  0  0  0
   26.6760   17.7680   16.4630 C   0  0  0  0  0  0  0  0  0  0  0  0
   26.1890   19.1500   16.8380 C   0  0  0  0  0  0  0  0  0  0  0  0
   25.9320   19.4640   17.9950 O   0  0  0  0  0  0  0  0  0  0  0  0
   26.0620   20.0530   15.8130 N   0  0  0  0  0  0  0  0  0  0  0  0
   25.9090   19.7390   14.4820 C   0  0  0  0  0  0  0  0  0  0  0  0
   25.3360   20.5170   13.7230 O   0  0  0  0  0  0  0  0  0  0  0  0
   24.8480   17.3390   12.5000 C   0  0  0  0  0  0  0  0  0  0  0  0
   23.9240   17.1910   13.2760 O   0  0  0  0  0  0  0  0  0  0  0  0
   27.0380   15.3290    6.7570 C   0  0  0  0  0  0  0  0  0  0  0  0
   28.3070   15.2040    7.3670 C   0  0  0  0  0  0  0  0  0  0  0  0
   29.2440   14.7720    6.5180 N   0  0  0  0  0  0  0  0  0  0  0  0
   28.5900   14.6090    5.3060 O   0  0  0  0  0  0  0  0  0  0  0  0
   27.2790   14.9450    5.4490 C   0  0  0  0  0  0  0  0  0  0  0  0
   24.6020   11.4380    4.0490 C   0  0  0  0  0  0  0  0  0  0  0  0
   24.3930   10.8440    5.2060 N   0  0  0  0  0  0  0  0  0  0  0  0
   24.7464    9.1845    8.6779 H   0  0  0  0  0  0  0  0  0  0  0  0
   23.8606    9.4192    7.1330 H   0  0  0  0  0  0  0  0  0  0  0  0
   25.4708    8.6230    7.1330 H   0  0  0  0  0  0  0  0  0  0  0  0
   25.0350   11.4818    8.0930 H   0  0  0  0  0  0  0  0  0  0  0  0
   26.5890   10.6396    7.6728 H   0  0  0  0  0  0  0  0  0  0  0  0
   27.2096   12.5553    5.7084 H   0  0  0  0  0  0  0  0  0  0  0  0
   24.2219   15.3393    4.0562 H   0  0  0  0  0  0  0  0  0  0  0  0
   23.7171   16.0313    6.3858 H   0  0  0  0  0  0  0  0  0  0  0  0
   23.4346   15.2925    8.4966 H   0  0  0  0  0  0  0  0  0  0  0  0
   22.9217   15.9547   10.8615 H   0  0  0  0  0  0  0  0  0  0  0  0
   27.4080   17.0273    8.8414 H   0  0  0  0  0  0  0  0  0  0  0  0
   27.8403   17.2243   11.8695 H   0  0  0  0  0  0  0  0  0  0  0  0
   27.3895   18.7935   11.2453 H   0  0  0  0  0  0  0  0  0  0  0  0
   27.5800   18.4493   14.0037 H   0  0  0  0  0  0  0  0  0  0  0  0
   25.0245   17.2488   15.1822 H   0  0  0  0  0  0  0  0  0  0  0  0
   26.5469   16.3620   14.8364 H   0  0  0  0  0  0  0  0  0  0  0  0
   26.3509   17.0520   17.2321 H   0  0  0  0  0  0  0  0  0  0  0  0
   27.7736   17.7919   16.3948 H   0  0  0  0  0  0  0  0  0  0  0  0
   26.0830   21.0524   16.0612 H   0  0  0  0  0  0  0  0  0  0  0  0
   28.5017   15.4368    8.4243 H   0  0  0  0  0  0  0  0  0  0  0  0
   23.9764   11.3054    3.1540 H   0  0  0  0  0  0  0  0  0  0  0  0
  1  2  1  0
  2  3  1  0
  3  4  2  0
  4  5  1  0
  5  6  1  0
  6  7  2  0
  6  8  2  0
  6  9  1  0
  9 10  1  0
 10 11  2  0
 11 12  1  0
 12 13  2  0
 13 14  1  0
 14 15  2  0
 15 16  1  0
 16 17  2  0
 17 18  1  0
 18 19  2  0
 18 20  1  0
 20 21  1  0
 21 22  1  0
 22 23  1  0
 23 24  1  0
 24 25  1  0
 25 26  2  0
 25 27  1  0
 27 28  1  0
 28 29  2  0
 21 30  1  0
 30 31  2  0
 13 32  1  0
 32 33  1  0
 33 34  2  0
 34 35  1  0
 35 36  1  0
  5 37  1  0
 37 38  2  0
 38  3  1  0
 36 10  1  0
 19 14  1  0
 28 22  1  0
 36 32  2  0
 30 17  1  0
  1 39  1  0
  1 40  1  0
  1 41  1  0
  2 42  1  0
  2 43  1  0
  4 44  1  0
 11 45  1  0
 12 46  1  0
 15 47  1  0
 16 48  1  0
 19 49  1  0
 20 50  1  0
 20 51  1  0
 22 52  1  6
 23 53  1  0
 23 54  1  0
 24 55  1  0
 24 56  1  0
 27 57  1  0
 33 58  1  0
 37 59  1  0
M  END
>  <meeko>  (754) 
{"is_sidechain": [true], "free_energy": -11.55, "intermolecular_energy": 0.0, "internal_energy": -11.55, "cluster_size": 2, "cluster_id": 2, "rank_in_cluster": 1}

>  <_RMSD_MCS_to_ref>  (754) 
1.1949019020637446

$$$$
ligand
     RDKit          3D

 56 60  0  0  0  0  0  0  0  0999 V2000
   24.8710    9.6160    7.7820 C   0  0  0  0  0  0  0  0  0  0  0  0
   25.4240   10.9650    7.3490 C   0  0  0  0  0  0  0  0  0  0  0  0
   24.8050   11.4470    6.0840 C   0  0  0  0  0  0  0  0  0  0  0  0
   24.5060   12.7410    5.7030 C   0  0  0  0  0  0  0  0  0  0  0  0
   23.9540   12.6050    4.4620 N   0  0  0  0  0  0  0  0  0  0  0  0
   23.5000   13.8510    3.4350 S   0  0  0  0  0  6  0  0  0  0  0  0
   23.9480   13.4560    2.1110 O   0  0  0  0  0  0  0  0  0  0  0  0
   22.1020   14.1140    3.7280 O   0  0  0  0  0  0  0  0  0  0  0  0
   24.4350   15.2670    3.9260 C   0  0  0  0  0  0  0  0  0  0  0  0
   24.5330   16.3300    3.0630 C   0  0  0  0  0  0  0  0  0  0  0  0
   25.2560   17.3780    3.5570 C   0  0  0  0  0  0  0  0  0  0  0  0
   25.8180   17.3770    4.7810 N   0  0  0  0  0  0  0  0  0  0  0  0
   25.6710   16.2840    5.5510 C   0  0  0  0  0  0  0  0  0  0  0  0
   26.2420   16.3760    6.8140 N   0  0  0  0  0  0  0  0  0  0  0  0
   25.7250   16.4220    8.1150 C   0  0  0  0  0  0  0  0  0  0  0  0
   24.5050   15.8190    8.4840 C   0  0  0  0  0  0  0  0  0  0  0  0
   23.9870   15.9270    9.7810 C   0  0  0  0  0  0  0  0  0  0  0  0
   24.7140   16.6550   10.6950 C   0  0  0  0  0  0  0  0  0  0  0  0
   25.9190   17.2680   10.3690 C   0  0  0  0  0  0  0  0  0  0  0  0
   26.4320   17.1620    9.0850 C   0  0  0  0  0  0  0  0  0  0  0  0
   26.4560   18.0000   11.5530 C   0  0  0  0  0  0  0  0  0  0  0  0
   25.4960   17.6660   12.5970 N   0  0  0  0  0  0  0  0  0  0  0  0
   25.4430   18.3380   13.8890 C   0  0  1  0  0  0  0  0  0  0  0  0
   26.3070   17.6490   14.9400 C   0  0  0  0  0  0  0  0  0  0  0  0
   26.1290   18.3500   16.2790 C   0  0  0  0  0  0  0  0  0  0  0  0
   26.4430   19.8240   16.1670 C   0  0  0  0  0  0  0  0  0  0  0  0
   26.9930   20.4490   17.0690 O   0  0  0  0  0  0  0  0  0  0  0  0
   26.0650   20.4440   15.0040 N   0  0  0  0  0  0  0  0  0  0  0  0
   25.8570   19.8170   13.7960 C   0  0  0  0  0  0  0  0  0  0  0  0
   26.0170   20.4320   12.7440 O   0  0  0  0  0  0  0  0  0  0  0  0
   24.4170   16.9470   12.1010 C   0  0  0  0  0  0  0  0  0  0  0  0
   23.4070   16.6130   12.6910 O   0  0  0  0  0  0  0  0  0  0  0  0
   24.9870   15.2050    5.1560 N   0  0  0  0  0  0  0  0  0  0  0  0
   23.9570   11.2910    4.1130 C   0  0  0  0  0  0  0  0  0  0  0  0
   24.4620   10.5580    5.0840 N   0  0  0  0  0  0  0  0  0  0  0  0
   24.8497    9.5640    8.8806 H   0  0  0  0  0  0  0  0  0  0  0  0
   23.8507    9.4948    7.3893 H   0  0  0  0  0  0  0  0  0  0  0  0
   25.5127    8.8135    7.3893 H   0  0  0  0  0  0  0  0  0  0  0  0
   25.2260   11.7003    8.1428 H   0  0  0  0  0  0  0  0  0  0  0  0
   26.5033   10.8466    7.1729 H   0  0  0  0  0  0  0  0  0  0  0  0
   24.6743   13.6685    6.2700 H   0  0  0  0  0  0  0  0  0  0  0  0
   24.0713   16.3370    2.0646 H   0  0  0  0  0  0  0  0  0  0  0  0
   25.3859   18.2677    2.9233 H   0  0  0  0  0  0  0  0  0  0  0  0
   27.2707   16.4200    6.7881 H   0  0  0  0  0  0  0  0  0  0  0  0
   23.9433   15.2468    7.7310 H   0  0  0  0  0  0  0  0  0  0  0  0
   23.0361   15.4485   10.0582 H   0  0  0  0  0  0  0  0  0  0  0  0
   27.3825   17.6511    8.8254 H   0  0  0  0  0  0  0  0  0  0  0  0
   27.4647   17.6471   11.8138 H   0  0  0  0  0  0  0  0  0  0  0  0
   26.5618   19.0822   11.3866 H   0  0  0  0  0  0  0  0  0  0  0  0
   24.3896   18.2796   14.2005 H   0  0  0  0  0  0  0  0  0  0  0  0
   26.0018   16.5963   15.0334 H   0  0  0  0  0  0  0  0  0  0  0  0
   27.3633   17.6980   14.6371 H   0  0  0  0  0  0  0  0  0  0  0  0
   25.0878   18.2287   16.6125 H   0  0  0  0  0  0  0  0  0  0  0  0
   26.8221   17.8991   17.0045 H   0  0  0  0  0  0  0  0  0  0  0  0
   25.9250   21.4639   15.0367 H   0  0  0  0  0  0  0  0  0  0  0  0
   23.5894   10.8956    3.1546 H   0  0  0  0  0  0  0  0  0  0  0  0
  1  2  1  0
  2  3  1  0
  3  4  2  0
  4  5  1  0
  5  6  1  0
  6  7  2  0
  6  8  2  0
  6  9  1  0
  9 10  2  0
 10 11  1  0
 11 12  2  0
 12 13  1  0
 13 14  1  0
 14 15  1  0
 15 16  2  0
 16 17  1  0
 17 18  2  0
 18 19  1  0
 19 20  2  0
 19 21  1  0
 21 22  1  0
 22 23  1  0
 23 24  1  0
 24 25  1  0
 25 26  1  0
 26 27  2  0
 26 28  1  0
 28 29  1  0
 29 30  2  0
 22 31  1  0
 31 32  2  0
 13 33  2  0
  5 34  1  0
 34 35  2  0
 35  3  1  0
 33  9  1  0
 20 15  1  0
 29 23  1  0
 31 18  1  0
  1 36  1  0
  1 37  1  0
  1 38  1  0
  2 39  1  0
  2 40  1  0
  4 41  1  0
 10 42  1  0
 11 43  1  0
 14 44  1  0
 16 45  1  0
 17 46  1  0
 20 47  1  0
 21 48  1  0
 21 49  1  0
 23 50  1  1
 24 51  1  0
 24 52  1  0
 25 53  1  0
 25 54  1  0
 28 55  1  0
 34 56  1  0
M  END
>  <meeko>  (755) 
{"is_sidechain": [true], "free_energy": -11.55, "intermolecular_energy": 0.0, "internal_energy": -11.55, "cluster_size": 15, "cluster_id": 1, "rank_in_cluster": 1}

>  <_RMSD_MCS_to_ref>  (755) 
1.0375670259474004

$$$$
ligand
     RDKit          3D

 61 66  0  0  0  0  0  0  0  0999 V2000
   24.8710    9.6170    7.7820 C   0  0  0  0  0  0  0  0  0  0  0  0
   25.4240   10.9640    7.3490 C   0  0  0  0  0  0  0  0  0  0  0  0
   26.8540   11.1320    7.7230 C   0  0  0  0  0  0  0  0  0  0  0  0
   27.4670   12.1950    8.3570 C   0  0  0  0  0  0  0  0  0  0  0  0
   28.7750   11.8160    8.4580 N   0  0  0  0  0  0  0  0  0  0  0  0
   30.0500   12.7800    8.9960 S   0  0  0  0  0  6  0  0  0  0  0  0
   29.9980   12.6950   10.4460 O   0  0  0  0  0  0  0  0  0  0  0  0
   31.2080   12.3020    8.2630 O   0  0  0  0  0  0  0  0  0  0  0  0
   29.7670   14.3300    8.5430 O   0  0  0  0  0  0  0  0  0  0  0  0
   28.8970   14.6080    7.5740 C   0  0  0  0  0  0  0  0  0  0  0  0
   27.6050   15.1250    7.5710 C   0  0  0  0  0  0  0  0  0  0  0  0
   26.8320   15.4890    8.7440 C   0  0  0  0  0  0  0  0  0  0  0  0
   25.5520   14.9300    8.9750 C   0  0  0  0  0  0  0  0  0  0  0  0
   24.8240   15.2500   10.1240 C   0  0  0  0  0  0  0  0  0  0  0  0
   25.4060   16.1270   11.0180 C   0  0  0  0  0  0  0  0  0  0  0  0
   26.6550   16.7050   10.8040 C   0  0  0  0  0  0  0  0  0  0  0  0
   27.3770   16.4030    9.6610 C   0  0  0  0  0  0  0  0  0  0  0  0
   27.0000   17.6120   11.9360 C   0  0  0  0  0  0  0  0  0  0  0  0
   25.8730   17.4290   12.8440 N   0  0  0  0  0  0  0  0  0  0  0  0
   25.6330   18.2690   14.0090 C   0  0  1  0  0  0  0  0  0  0  0  0
   26.3160   17.7340   15.2640 C   0  0  0  0  0  0  0  0  0  0  0  0
   25.9440   18.6060   16.4530 C   0  0  0  0  0  0  0  0  0  0  0  0
   26.2890   20.0550   16.1960 C   0  0  0  0  0  0  0  0  0  0  0  0
   26.6900   20.8020   17.0830 O   0  0  0  0  0  0  0  0  0  0  0  0
   26.1160   20.5080   14.9130 N   0  0  0  0  0  0  0  0  0  0  0  0
   26.0720   19.7250   13.7810 C   0  0  0  0  0  0  0  0  0  0  0  0
   26.3770   20.1990   12.6900 O   0  0  0  0  0  0  0  0  0  0  0  0
   24.8850   16.6260   12.2950 C   0  0  0  0  0  0  0  0  0  0  0  0
   23.7900   16.3650   12.7530 O   0  0  0  0  0  0  0  0  0  0  0  0
   27.1490   15.3240    6.2750 N   0  0  0  0  0  0  0  0  0  0  0  0
   28.1090   14.8510    5.5230 C   0  0  0  0  0  0  0  0  0  0  0  0
   29.1530   14.3950    6.2670 N   0  0  0  0  0  0  0  0  0  0  0  0
   30.2200   13.8380    5.4630 C   0  0  0  0  0  0  0  0  0  0  0  0
   29.8730   14.3690    4.0600 C   0  0  0  0  0  0  0  0  0  0  0  0
   28.3530   14.6700    4.0800 C   0  0  0  0  0  0  0  0  0  0  0  0
   28.9360   10.6070    7.8590 C   0  0  0  0  0  0  0  0  0  0  0  0
   27.7790   10.1530    7.4200 N   0  0  0  0  0  0  0  0  0  0  0  0
   24.8498    9.5653    8.8806 H   0  0  0  0  0  0  0  0  0  0  0  0
   23.8505    9.4962    7.3895 H   0  0  0  0  0  0  0  0  0  0  0  0
   25.5122    8.8140    7.3895 H   0  0  0  0  0  0  0  0  0  0  0  0
   25.3314   11.0501    6.2563 H   0  0  0  0  0  0  0  0  0  0  0  0
   24.8468   11.7466    7.8631 H   0  0  0  0  0  0  0  0  0  0  0  0
   27.0067   13.1327    8.7018 H   0  0  0  0  0  0  0  0  0  0  0  0
   25.1242   14.2334    8.2390 H   0  0  0  0  0  0  0  0  0  0  0  0
   23.8281   14.8209   10.3088 H   0  0  0  0  0  0  0  0  0  0  0  0
   28.3560   16.8689    9.4754 H   0  0  0  0  0  0  0  0  0  0  0  0
   27.9457   17.3123   12.4112 H   0  0  0  0  0  0  0  0  0  0  0  0
   27.1499   18.6577   11.6292 H   0  0  0  0  0  0  0  0  0  0  0  0
   24.5439   18.2456   14.1615 H   0  0  0  0  0  0  0  0  0  0  0  0
   25.9862   16.7011   15.4491 H   0  0  0  0  0  0  0  0  0  0  0  0
   27.4069   17.7504   15.1237 H   0  0  0  0  0  0  0  0  0  0  0  0
   24.8626   18.5214   16.6358 H   0  0  0  0  0  0  0  0  0  0  0  0
   26.5131   18.2621   17.3293 H   0  0  0  0  0  0  0  0  0  0  0  0
   26.0095   21.5244   14.7848 H   0  0  0  0  0  0  0  0  0  0  0  0
   31.2033   14.2016    5.7962 H   0  0  0  0  0  0  0  0  0  0  0  0
   30.2910   12.7417    5.5176 H   0  0  0  0  0  0  0  0  0  0  0  0
   30.4414   15.2865    3.8474 H   0  0  0  0  0  0  0  0  0  0  0  0
   30.1284   13.6382    3.2785 H   0  0  0  0  0  0  0  0  0  0  0  0
   28.1167   15.5835    3.5147 H   0  0  0  0  0  0  0  0  0  0  0  0
   27.7345   13.8883    3.6148 H   0  0  0  0  0  0  0  0  0  0  0  0
   29.8966   10.0812    7.7551 H   0  0  0  0  0  0  0  0  0  0  0  0
  1  2  1  0
  2  3  1  0
  3  4  2  0
  4  5  1  0
  5  6  1  0
  6  7  2  0
  6  8  2  0
  6  9  1  0
  9 10  1  0
 10 11  2  0
 11 12  1  0
 12 13  2  0
 13 14  1  0
 14 15  2  0
 15 16  1  0
 16 17  2  0
 16 18  1  0
 18 19  1  0
 19 20  1  0
 20 21  1  0
 21 22  1  0
 22 23  1  0
 23 24  2  0
 23 25  1  0
 25 26  1  0
 26 27  2  0
 19 28  1  0
 28 29  2  0
 11 30  1  0
 30 31  2  0
 31 32  1  0
 32 33  1  0
 33 34  1  0
 34 35  1  0
  5 36  1  0
 36 37  2  0
 37  3  1  0
 32 10  1  0
 17 12  1  0
 26 20  1  0
 35 31  1  0
 28 15  1  0
  1 38  1  0
  1 39  1  0
  1 40  1  0
  2 41  1  0
  2 42  1  0
  4 43  1  0
 13 44  1  0
 14 45  1  0
 17 46  1  0
 18 47  1  0
 18 48  1  0
 20 49  1  1
 21 50  1  0
 21 51  1  0
 22 52  1  0
 22 53  1  0
 25 54  1  0
 33 55  1  0
 33 56  1  0
 34 57  1  0
 34 58  1  0
 35 59  1  0
 35 60  1  0
 36 61  1  0
M  END
>  <meeko>  (756) 
{"is_sidechain": [true], "free_energy": -11.55, "intermolecular_energy": 0.0, "internal_energy": -11.55, "cluster_size": 19, "cluster_id": 1, "rank_in_cluster": 1}

>  <_RMSD_MCS_to_ref>  (756) 
1.3227969570095344

$$$$
ligand
     RDKit          3D

 60 64  0  0  0  0  0  0  0  0999 V2000
   24.8710    9.6160    7.7820 C   0  0  0  0  0  0  0  0  0  0  0  0
   25.4240   10.9650    7.3490 C   0  0  0  0  0  0  0  0  0  0  0  0
   25.0280   11.3140    5.9590 C   0  0  0  0  0  0  0  0  0  0  0  0
   24.1710   12.3060    5.5250 C   0  0  0  0  0  0  0  0  0  0  0  0
   24.1790   12.1870    4.1670 N   0  0  0  0  0  0  0  0  0  0  0  0
   23.4580   13.2200    3.0650 S   0  0  0  0  0  6  0  0  0  0  0  0
   22.0580   13.3310    3.4150 O   0  0  0  0  0  0  0  0  0  0  0  0
   23.9060   12.7800    1.7570 O   0  0  0  0  0  0  0  0  0  0  0  0
   24.1150   14.8330    3.2140 C   0  0  0  0  0  0  0  0  0  0  0  0
   23.4240   15.8990    2.6960 N   0  0  0  0  0  0  0  0  0  0  0  0
   24.0390   17.0880    2.8650 N   0  0  0  0  0  0  0  0  0  0  0  0
   25.1320   16.7700    3.5560 C   0  0  0  0  0  0  0  0  0  0  0  0
   25.2340   15.3870    3.7940 C   0  0  0  0  0  0  0  0  0  0  0  0
   26.3200   14.7790    4.5110 C   0  0  0  0  0  0  0  0  0  0  0  0
   26.4840   13.5730    4.6110 O   0  0  0  0  0  0  0  0  0  0  0  0
   27.1820   15.6810    5.0980 N   0  0  0  0  0  0  0  0  0  0  0  0
   26.9000   17.1310    5.2380 C   0  0  2  0  0  0  0  0  0  0  0  0
   26.1350   17.4850    6.5390 C   0  0  0  0  0  0  0  0  0  0  0  0
   25.0500   18.0580    6.4800 O   0  0  0  0  0  0  0  0  0  0  0  0
   26.7970   17.1170    7.6960 N   0  0  0  0  0  0  0  0  0  0  0  0
   26.3760   17.2910    9.0300 C   0  0  0  0  0  0  0  0  0  0  0  0
   27.0520   18.2530    9.7890 C   0  0  0  0  0  0  0  0  0  0  0  0
   26.6990   18.4920   11.1210 C   0  0  0  0  0  0  0  0  0  0  0  0
   25.6530   17.7790   11.7210 C   0  0  0  0  0  0  0  0  0  0  0  0
   25.2640   17.9980   13.1730 C   0  0  1  0  0  0  0  0  0  0  0  0
   25.9420   16.9510   14.0640 C   0  0  0  0  0  0  0  0  0  0  0  0
   25.4990   17.1350   15.5060 C   0  0  0  0  0  0  0  0  0  0  0  0
   25.7960   18.5320   15.9900 C   0  0  0  0  0  0  0  0  0  0  0  0
   25.9630   18.7950   17.1770 O   0  0  0  0  0  0  0  0  0  0  0  0
   25.8080   19.5190   15.0380 N   0  0  0  0  0  0  0  0  0  0  0  0
   25.5650   19.4050   13.6880 C   0  0  0  0  0  0  0  0  0  0  0  0
   25.5440   20.4150   12.9860 O   0  0  0  0  0  0  0  0  0  0  0  0
   24.9840   16.8130   10.9580 C   0  0  0  0  0  0  0  0  0  0  0  0
   25.3410   16.5730    9.6250 C   0  0  0  0  0  0  0  0  0  0  0  0
   26.1630   17.7350    4.0190 C   0  0  0  0  0  0  0  0  0  0  0  0
   25.0210   11.1820    3.8130 C   0  0  0  0  0  0  0  0  0  0  0  0
   25.5500   10.6230    4.8810 N   0  0  0  0  0  0  0  0  0  0  0  0
   24.8497    9.5640    8.8806 H   0  0  0  0  0  0  0  0  0  0  0  0
   23.8507    9.4948    7.3893 H   0  0  0  0  0  0  0  0  0  0  0  0
   25.5127    8.8135    7.3893 H   0  0  0  0  0  0  0  0  0  0  0  0
   25.0431   11.7395    8.0310 H   0  0  0  0  0  0  0  0  0  0  0  0
   26.5219   10.9067    7.3830 H   0  0  0  0  0  0  0  0  0  0  0  0
   23.6096   13.0280    6.1361 H   0  0  0  0  0  0  0  0  0  0  0  0
   22.5159   15.8004    2.2201 H   0  0  0  0  0  0  0  0  0  0  0  0
   28.0777   15.3260    5.4621 H   0  0  0  0  0  0  0  0  0  0  0  0
   27.8982   17.5899    5.2930 H   0  0  0  0  0  0  0  0  0  0  0  0
   27.7106   16.6592    7.5671 H   0  0  0  0  0  0  0  0  0  0  0  0
   27.8710   18.8282    9.3324 H   0  0  0  0  0  0  0  0  0  0  0  0
   27.2479   19.2470   11.7030 H   0  0  0  0  0  0  0  0  0  0  0  0
   24.1709   17.8839   13.2189 H   0  0  0  0  0  0  0  0  0  0  0  0
   25.6614   15.9439   13.7218 H   0  0  0  0  0  0  0  0  0  0  0  0
   27.0333   17.0740   14.0016 H   0  0  0  0  0  0  0  0  0  0  0  0
   24.4164   16.9531   15.5754 H   0  0  0  0  0  0  0  0  0  0  0  0
   26.0515   16.4218   16.1354 H   0  0  0  0  0  0  0  0  0  0  0  0
   26.0268   20.4669   15.3765 H   0  0  0  0  0  0  0  0  0  0  0  0
   24.1663   16.2345   11.4125 H   0  0  0  0  0  0  0  0  0  0  0  0
   24.8001   15.8119    9.0436 H   0  0  0  0  0  0  0  0  0  0  0  0
   25.6808   18.6800    4.3096 H   0  0  0  0  0  0  0  0  0  0  0  0
   26.8804   17.9326    3.2089 H   0  0  0  0  0  0  0  0  0  0  0  0
   25.2318   10.8773    2.7773 H   0  0  0  0  0  0  0  0  0  0  0  0
  1  2  1  0
  2  3  1  0
  3  4  2  0
  4  5  1  0
  5  6  1  0
  6  7  2  0
  6  8  2  0
  6  9  1  0
  9 10  1  0
 10 11  1  0
 11 12  2  0
 12 13  1  0
 13 14  1  0
 14 15  2  0
 14 16  1  0
 16 17  1  0
 17 18  1  0
 18 19  2  0
 18 20  1  0
 20 21  1  0
 21 22  2  0
 22 23  1  0
 23 24  2  0
 24 25  1  0
 25 26  1  0
 26 27  1  0
 27 28  1  0
 28 29  2  0
 28 30  1  0
 30 31  1  0
 31 32  2  0
 24 33  1  0
 33 34  2  0
 17 35  1  0
  5 36  1  0
 36 37  2  0
 37  3  1  0
 13  9  2  0
 34 21  1  0
 35 12  1  0
 31 25  1  0
  1 38  1  0
  1 39  1  0
  1 40  1  0
  2 41  1  0
  2 42  1  0
  4 43  1  0
 10 44  1  0
 16 45  1  0
 17 46  1  1
 20 47  1  0
 22 48  1  0
 23 49  1  0
 25 50  1  6
 26 51  1  0
 26 52  1  0
 27 53  1  0
 27 54  1  0
 30 55  1  0
 33 56  1  0
 34 57  1  0
 35 58  1  0
 35 59  1  0
 36 60  1  0
M  END
>  <meeko>  (757) 
{"is_sidechain": [true], "free_energy": -11.55, "intermolecular_energy": 0.0, "internal_energy": -11.55, "cluster_size": 18, "cluster_id": 1, "rank_in_cluster": 1}

>  <_RMSD_MCS_to_ref>  (757) 
1.4920532413422778

$$$$
ligand
     RDKit          3D

 53 57  0  0  0  0  0  0  0  0999 V2000
   24.8710    9.6170    7.7820 C   0  0  0  0  0  0  0  0  0  0  0  0
   25.4240   10.9640    7.3490 C   0  0  0  0  0  0  0  0  0  0  0  0
   26.5740   11.3970    8.1910 C   0  0  0  0  0  0  0  0  0  0  0  0
   27.6870   12.1300    7.8290 C   0  0  0  0  0  0  0  0  0  0  0  0
   28.4240   12.2080    8.9750 N   0  0  0  0  0  0  0  0  0  0  0  0
   29.8190   13.1330    9.1890 S   0  0  0  0  0  6  0  0  0  0  0  0
   30.0050   13.1980   10.6270 O   0  0  0  0  0  0  0  0  0  0  0  0
   30.8040   12.4930    8.3350 O   0  0  0  0  0  0  0  0  0  0  0  0
   29.5220   14.6250    8.5860 O   0  0  0  0  0  0  0  0  0  0  0  0
   28.6880   14.7940    7.5590 C   0  0  0  0  0  0  0  0  0  0  0  0
   29.1630   14.4080    5.9530 S   0  0  0  0  0  0  0  0  0  0  0  0
   27.6360   14.9340    5.3850 C   0  0  0  0  0  0  0  0  0  0  0  0
   26.7880   15.3430    6.3030 N   0  0  0  0  0  0  0  0  0  0  0  0
   27.3650   15.2080    7.5540 C   0  0  0  0  0  0  0  0  0  0  0  0
   26.6210   15.5600    8.7530 C   0  0  0  0  0  0  0  0  0  0  0  0
   25.3830   14.9400    9.0480 C   0  0  0  0  0  0  0  0  0  0  0  0
   24.6940   15.2380   10.2260 C   0  0  0  0  0  0  0  0  0  0  0  0
   25.2710   16.1550   11.0820 C   0  0  0  0  0  0  0  0  0  0  0  0
   26.4770   16.7930   10.8040 C   0  0  0  0  0  0  0  0  0  0  0  0
   27.1580   16.5170    9.6320 C   0  0  0  0  0  0  0  0  0  0  0  0
   26.8410   17.7140   11.9180 C   0  0  0  0  0  0  0  0  0  0  0  0
   25.7800   17.4680   12.8890 N   0  0  0  0  0  0  0  0  0  0  0  0
   25.5690   18.2880   14.0740 C   0  0  1  0  0  0  0  0  0  0  0  0
   26.3050   17.7470   15.2960 C   0  0  0  0  0  0  0  0  0  0  0  0
   25.9660   18.5990   16.5090 C   0  0  0  0  0  0  0  0  0  0  0  0
   26.2830   20.0550   16.2610 C   0  0  0  0  0  0  0  0  0  0  0  0
   26.6910   20.7990   17.1460 O   0  0  0  0  0  0  0  0  0  0  0  0
   26.0710   20.5200   14.9870 N   0  0  0  0  0  0  0  0  0  0  0  0
   25.9800   19.7530   13.8480 C   0  0  0  0  0  0  0  0  0  0  0  0
   26.2190   20.2470   12.7490 O   0  0  0  0  0  0  0  0  0  0  0  0
   24.8040   16.6170   12.3930 C   0  0  0  0  0  0  0  0  0  0  0  0
   23.7630   16.2790   12.9230 O   0  0  0  0  0  0  0  0  0  0  0  0
   27.7440   11.6040    9.9840 C   0  0  0  0  0  0  0  0  0  0  0  0
   26.6170   11.0880    9.5380 N   0  0  0  0  0  0  0  0  0  0  0  0
   24.8498    9.5653    8.8806 H   0  0  0  0  0  0  0  0  0  0  0  0
   23.8505    9.4962    7.3895 H   0  0  0  0  0  0  0  0  0  0  0  0
   25.5122    8.8140    7.3895 H   0  0  0  0  0  0  0  0  0  0  0  0
   25.7583   10.8903    6.3036 H   0  0  0  0  0  0  0  0  0  0  0  0
   24.6233   11.7098    7.4616 H   0  0  0  0  0  0  0  0  0  0  0  0
   27.9251   12.5541    6.8424 H   0  0  0  0  0  0  0  0  0  0  0  0
   27.3794   14.9301    4.3153 H   0  0  0  0  0  0  0  0  0  0  0  0
   24.9578   14.2136    8.3398 H   0  0  0  0  0  0  0  0  0  0  0  0
   23.7310   14.7616   10.4621 H   0  0  0  0  0  0  0  0  0  0  0  0
   28.0987   17.0347    9.3930 H   0  0  0  0  0  0  0  0  0  0  0  0
   27.8276   17.4635   12.3349 H   0  0  0  0  0  0  0  0  0  0  0  0
   26.9183   18.7670   11.6095 H   0  0  0  0  0  0  0  0  0  0  0  0
   24.4869   18.2460   14.2671 H   0  0  0  0  0  0  0  0  0  0  0  0
   25.9959   16.7075   15.4799 H   0  0  0  0  0  0  0  0  0  0  0  0
   27.3896   17.7801   15.1157 H   0  0  0  0  0  0  0  0  0  0  0  0
   24.8931   18.4981   16.7296 H   0  0  0  0  0  0  0  0  0  0  0  0
   26.5716   18.2510   17.3588 H   0  0  0  0  0  0  0  0  0  0  0  0
   25.9706   21.5387   14.8728 H   0  0  0  0  0  0  0  0  0  0  0  0
   28.0867   11.5529   11.0280 H   0  0  0  0  0  0  0  0  0  0  0  0
  1  2  1  0
  2  3  1  0
  3  4  2  0
  4  5  1  0
  5  6  1  0
  6  7  2  0
  6  8  2  0
  6  9  1  0
  9 10  1  0
 10 11  1  0
 11 12  1  0
 12 13  2  0
 13 14  1  0
 14 15  1  0
 15 16  2  0
 16 17  1  0
 17 18  2  0
 18 19  1  0
 19 20  2  0
 19 21  1  0
 21 22  1  0
 22 23  1  0
 23 24  1  0
 24 25  1  0
 25 26  1  0
 26 27  2  0
 26 28  1  0
 28 29  1  0
 29 30  2  0
 22 31  1  0
 31 32  2  0
  5 33  1  0
 33 34  2  0
 34  3  1  0
 14 10  2  0
 20 15  1  0
 29 23  1  0
 31 18  1  0
  1 35  1  0
  1 36  1  0
  1 37  1  0
  2 38  1  0
  2 39  1  0
  4 40  1  0
 12 41  1  0
 16 42  1  0
 17 43  1  0
 20 44  1  0
 21 45  1  0
 21 46  1  0
 23 47  1  1
 24 48  1  0
 24 49  1  0
 25 50  1  0
 25 51  1  0
 28 52  1  0
 33 53  1  0
M  END
>  <meeko>  (758) 
{"is_sidechain": [true], "free_energy": -11.54, "intermolecular_energy": 0.0, "internal_energy": -11.54, "cluster_size": 12, "cluster_id": 1, "rank_in_cluster": 1}

>  <_RMSD_MCS_to_ref>  (758) 
1.1840249152783906

$$$$
ligand
     RDKit          3D

 61 66  0  0  0  0  0  0  0  0999 V2000
   24.8540    9.4020    7.6050 C   0  0  0  0  0  0  0  0  0  0  0  0
   25.5230   10.7550    7.4270 C   0  0  0  0  0  0  0  0  0  0  0  0
   24.7030   11.6850    6.6050 C   0  0  0  0  0  0  0  0  0  0  0  0
   24.9990   12.2550    5.3820 C   0  0  0  0  0  0  0  0  0  0  0  0
   23.8910   12.9930    5.0790 N   0  0  0  0  0  0  0  0  0  0  0  0
   23.7180   14.0220    3.7720 S   0  0  0  0  0  6  0  0  0  0  0  0
   22.2950   14.1510    3.5250 O   0  0  0  0  0  0  0  0  0  0  0  0
   24.6600   13.5770    2.7640 O   0  0  0  0  0  0  0  0  0  0  0  0
   24.2410   15.6130    4.2200 C   0  0  0  0  0  0  0  0  0  0  0  0
   23.9680   16.7060    3.4240 N   0  0  0  0  0  0  0  0  0  0  0  0
   24.4290   17.7390    4.0910 C   0  0  0  0  0  0  0  0  0  0  0  0
   24.4220   19.1280    3.7740 C   0  0  0  0  0  0  0  0  0  0  0  0
   24.9540   20.0150    4.6370 C   0  0  0  0  0  0  0  0  0  0  0  0
   25.5390   19.5880    5.8970 C   0  0  0  0  0  0  0  0  0  0  0  0
   25.5510   18.2790    6.2000 C   0  0  0  0  0  0  0  0  0  0  0  0
   25.0000   17.3590    5.3040 N   0  0  0  0  0  0  0  0  0  0  0  0
   24.9200   15.9790    5.3760 C   0  0  0  0  0  0  0  0  0  0  0  0
   25.3970   15.1870    6.4830 C   0  0  0  0  0  0  0  0  0  0  0  0
   26.2030   14.2730    6.3340 O   0  0  0  0  0  0  0  0  0  0  0  0
   24.8780   15.4340    7.8560 C   0  0  0  0  0  0  0  0  0  0  0  0
   23.6880   14.8200    8.3110 C   0  0  0  0  0  0  0  0  0  0  0  0
   23.2230   15.0500    9.6080 C   0  0  0  0  0  0  0  0  0  0  0  0
   23.9710   15.8870   10.4150 C   0  0  0  0  0  0  0  0  0  0  0  0
   25.1550   16.4860    9.9890 C   0  0  0  0  0  0  0  0  0  0  0  0
   25.6290   16.2620    8.7090 C   0  0  0  0  0  0  0  0  0  0  0  0
   25.7370   17.3020   11.0940 C   0  0  0  0  0  0  0  0  0  0  0  0
   24.7250   17.1990   12.1360 N   0  0  0  0  0  0  0  0  0  0  0  0
   24.9820   17.6750   13.4910 C   0  0  1  0  0  0  0  0  0  0  0  0
   25.9260   16.7790   14.2900 C   0  0  0  0  0  0  0  0  0  0  0  0
   26.0740   17.3330   15.7000 C   0  0  0  0  0  0  0  0  0  0  0  0
   26.5620   18.7620   15.6780 C   0  0  0  0  0  0  0  0  0  0  0  0
   27.1410   19.2710   16.6340 O   0  0  0  0  0  0  0  0  0  0  0  0
   26.2530   19.5030   14.5640 N   0  0  0  0  0  0  0  0  0  0  0  0
   25.4920   19.1250   13.4820 C   0  0  0  0  0  0  0  0  0  0  0  0
   25.1710   19.9530   12.6290 O   0  0  0  0  0  0  0  0  0  0  0  0
   23.7270   16.2950   11.8030 C   0  0  0  0  0  0  0  0  0  0  0  0
   22.8220   15.8750   12.4970 O   0  0  0  0  0  0  0  0  0  0  0  0
   23.0110   12.9160    6.1100 C   0  0  0  0  0  0  0  0  0  0  0  0
   23.4620   12.1040    7.0430 N   0  0  0  0  0  0  0  0  0  0  0  0
   24.7464    9.1845    8.6779 H   0  0  0  0  0  0  0  0  0  0  0  0
   23.8606    9.4192    7.1330 H   0  0  0  0  0  0  0  0  0  0  0  0
   25.4708    8.6230    7.1330 H   0  0  0  0  0  0  0  0  0  0  0  0
   25.6815   11.2047    8.4183 H   0  0  0  0  0  0  0  0  0  0  0  0
   26.4765   10.5933    6.9029 H   0  0  0  0  0  0  0  0  0  0  0  0
   25.9176   12.1405    4.7879 H   0  0  0  0  0  0  0  0  0  0  0  0
   23.9833   19.4752    2.8269 H   0  0  0  0  0  0  0  0  0  0  0  0
   24.9455   21.0852    4.3827 H   0  0  0  0  0  0  0  0  0  0  0  0
   25.9657   20.3257    6.5925 H   0  0  0  0  0  0  0  0  0  0  0  0
   25.9916   17.9339    7.1470 H   0  0  0  0  0  0  0  0  0  0  0  0
   23.1244   14.1564    7.6386 H   0  0  0  0  0  0  0  0  0  0  0  0
   22.2966   14.5828    9.9734 H   0  0  0  0  0  0  0  0  0  0  0  0
   26.5690   16.7197    8.3672 H   0  0  0  0  0  0  0  0  0  0  0  0
   26.6974   16.8851   11.4314 H   0  0  0  0  0  0  0  0  0  0  0  0
   25.9576   18.3391   10.8010 H   0  0  0  0  0  0  0  0  0  0  0  0
   24.0113   17.6369   14.0071 H   0  0  0  0  0  0  0  0  0  0  0  0
   25.5135   15.7604   14.3371 H   0  0  0  0  0  0  0  0  0  0  0  0
   26.9105   16.7519   13.8000 H   0  0  0  0  0  0  0  0  0  0  0  0
   25.0972   17.2954   16.2044 H   0  0  0  0  0  0  0  0  0  0  0  0
   26.8130   16.7213   16.2383 H   0  0  0  0  0  0  0  0  0  0  0  0
   26.6378   20.4580   14.5349 H   0  0  0  0  0  0  0  0  0  0  0  0
   22.0544   13.4568    6.1590 H   0  0  0  0  0  0  0  0  0  0  0  0
  1  2  1  0
  2  3  1  0
  3  4  2  0
  4  5  1  0
  5  6  1  0
  6  7  2  0
  6  8  2  0
  6  9  1  0
  9 10  1  0
 10 11  2  0
 11 12  1  0
 12 13  2  0
 13 14  1  0
 14 15  2  0
 15 16  1  0
 16 17  1  0
 17 18  1  0
 18 19  2  0
 18 20  1  0
 20 21  2  0
 21 22  1  0
 22 23  2  0
 23 24  1  0
 24 25  2  0
 24 26  1  0
 26 27  1  0
 27 28  1  0
 28 29  1  0
 29 30  1  0
 30 31  1  0
 31 32  2  0
 31 33  1  0
 33 34  1  0
 34 35  2  0
 27 36  1  0
 36 37  2  0
  5 38  1  0
 38 39  2  0
 39  3  1  0
 17  9  2  0
 25 20  1  0
 34 28  1  0
 16 11  1  0
 36 23  1  0
  1 40  1  0
  1 41  1  0
  1 42  1  0
  2 43  1  0
  2 44  1  0
  4 45  1  0
 12 46  1  0
 13 47  1  0
 14 48  1  0
 15 49  1  0
 21 50  1  0
 22 51  1  0
 25 52  1  0
 26 53  1  0
 26 54  1  0
 28 55  1  1
 29 56  1  0
 29 57  1  0
 30 58  1  0
 30 59  1  0
 33 60  1  0
 38 61  1  0
M  END
>  <meeko>  (759) 
{"is_sidechain": [true], "free_energy": -11.53, "intermolecular_energy": 0.0, "internal_energy": -11.53, "cluster_size": 19, "cluster_id": 1, "rank_in_cluster": 1}

>  <_RMSD_MCS_to_ref>  (759) 
1.4355975527052605

$$$$
ligand
     RDKit          3D

 59 64  0  0  0  0  0  0  0  0999 V2000
   24.8710    9.6160    7.7820 C   0  0  0  0  0  0  0  0  0  0  0  0
   25.4240   10.9650    7.3490 C   0  0  0  0  0  0  0  0  0  0  0  0
   24.9650   11.3470    5.9860 C   0  0  0  0  0  0  0  0  0  0  0  0
   24.3460   12.5120    5.5740 C   0  0  0  0  0  0  0  0  0  0  0  0
   24.1190   12.3110    4.2420 N   0  0  0  0  0  0  0  0  0  0  0  0
   23.5590   13.4740    3.1630 S   0  0  0  0  0  6  0  0  0  0  0  0
   23.9280   12.9430    1.8620 O   0  0  0  0  0  0  0  0  0  0  0  0
   22.1630   13.7020    3.4890 O   0  0  0  0  0  0  0  0  0  0  0  0
   24.4160   14.8540    3.3810 O   0  0  0  0  0  0  0  0  0  0  0  0
   25.2940   15.0110    4.4470 C   0  0  0  0  0  0  0  0  0  0  0  0
   24.8160   15.2690    5.6750 C   0  0  0  0  0  0  0  0  0  0  0  0
   25.8360   15.4340    6.7610 C   0  0  0  0  0  0  0  0  0  0  0  0
   25.3150   15.6850    8.1370 C   0  0  0  0  0  0  0  0  0  0  0  0
   24.1560   15.0380    8.6190 C   0  0  0  0  0  0  0  0  0  0  0  0
   23.6870   15.2870    9.9140 C   0  0  0  0  0  0  0  0  0  0  0  0
   24.4090   16.1700   10.6940 C   0  0  0  0  0  0  0  0  0  0  0  0
   25.5630   16.8060   10.2430 C   0  0  0  0  0  0  0  0  0  0  0  0
   26.0320   16.5710    8.9630 C   0  0  0  0  0  0  0  0  0  0  0  0
   26.0980   17.7010   11.3080 C   0  0  0  0  0  0  0  0  0  0  0  0
   25.2100   17.4320   12.4310 N   0  0  0  0  0  0  0  0  0  0  0  0
   25.2300   18.2650   13.6280 C   0  0  2  0  0  0  0  0  0  0  0  0
   25.8920   19.6270   13.4230 C   0  0  0  0  0  0  0  0  0  0  0  0
   25.8030   20.4310   14.7100 C   0  0  0  0  0  0  0  0  0  0  0  0
   26.4290   19.6860   15.8660 C   0  0  0  0  0  0  0  0  0  0  0  0
   26.8510   20.2620   16.8640 O   0  0  0  0  0  0  0  0  0  0  0  0
   26.4300   18.3160   15.7880 N   0  0  0  0  0  0  0  0  0  0  0  0
   25.8780   17.5230   14.8080 C   0  0  0  0  0  0  0  0  0  0  0  0
   25.8310   16.3020   14.9490 O   0  0  0  0  0  0  0  0  0  0  0  0
   24.1510   16.6120   12.0690 C   0  0  0  0  0  0  0  0  0  0  0  0
   23.1710   16.3050   12.7180 O   0  0  0  0  0  0  0  0  0  0  0  0
   27.1270   15.3950    6.5760 N   0  0  0  0  0  0  0  0  0  0  0  0
   27.5620   15.1570    5.3040 C   0  0  0  0  0  0  0  0  0  0  0  0
   28.8270   15.0550    4.7740 C   0  0  0  0  0  0  0  0  0  0  0  0
   28.6310   14.8270    3.4040 C   0  0  0  0  0  0  0  0  0  0  0  0
   27.3400   14.7890    3.0680 N   0  0  0  0  0  0  0  0  0  0  0  0
   26.6780   14.9610    4.2420 N   0  0  0  0  0  0  0  0  0  0  0  0
   24.6570   11.1210    3.8710 C   0  0  0  0  0  0  0  0  0  0  0  0
   25.1580   10.4960    4.9160 N   0  0  0  0  0  0  0  0  0  0  0  0
   24.8497    9.5640    8.8806 H   0  0  0  0  0  0  0  0  0  0  0  0
   23.8507    9.4948    7.3893 H   0  0  0  0  0  0  0  0  0  0  0  0
   25.5127    8.8135    7.3893 H   0  0  0  0  0  0  0  0  0  0  0  0
   25.0894   11.7314    8.0637 H   0  0  0  0  0  0  0  0  0  0  0  0
   26.5213   10.8903    7.3283 H   0  0  0  0  0  0  0  0  0  0  0  0
   24.0945   13.3960    6.1784 H   0  0  0  0  0  0  0  0  0  0  0  0
   23.7373   15.3544    5.8728 H   0  0  0  0  0  0  0  0  0  0  0  0
   23.6168   14.3317    7.9706 H   0  0  0  0  0  0  0  0  0  0  0  0
   22.7785   14.7985   10.2962 H   0  0  0  0  0  0  0  0  0  0  0  0
   26.9447   17.0654    8.5989 H   0  0  0  0  0  0  0  0  0  0  0  0
   27.1387   17.4445   11.5554 H   0  0  0  0  0  0  0  0  0  0  0  0
   26.1214   18.7611   11.0152 H   0  0  0  0  0  0  0  0  0  0  0  0
   24.1749   18.4690   13.8629 H   0  0  0  0  0  0  0  0  0  0  0  0
   26.9485   19.4844   13.1518 H   0  0  0  0  0  0  0  0  0  0  0  0
   25.3767   20.1680   12.6157 H   0  0  0  0  0  0  0  0  0  0  0  0
   26.3293   21.3871   14.5726 H   0  0  0  0  0  0  0  0  0  0  0  0
   24.7411   20.6015   14.9406 H   0  0  0  0  0  0  0  0  0  0  0  0
   26.9020   17.8202   16.5576 H   0  0  0  0  0  0  0  0  0  0  0  0
   29.7850   15.1349    5.3087 H   0  0  0  0  0  0  0  0  0  0  0  0
   29.4524   14.6939    2.6845 H   0  0  0  0  0  0  0  0  0  0  0  0
   24.6722   10.7333    2.8417 H   0  0  0  0  0  0  0  0  0  0  0  0
  1  2  1  0
  2  3  1  0
  3  4  2  0
  4  5  1  0
  5  6  1  0
  6  7  2  0
  6  8  2  0
  6  9  1  0
  9 10  1  0
 10 11  2  0
 11 12  1  0
 12 13  1  0
 13 14  2  0
 14 15  1  0
 15 16  2  0
 16 17  1  0
 17 18  2  0
 17 19  1  0
 19 20  1  0
 20 21  1  0
 21 22  1  0
 22 23  1  0
 23 24  1  0
 24 25  2  0
 24 26  1  0
 26 27  1  0
 27 28  2  0
 20 29  1  0
 29 30  2  0
 12 31  2  0
 31 32  1  0
 32 33  2  0
 33 34  1  0
 34 35  2  0
 35 36  1  0
  5 37  1  0
 37 38  2  0
 38  3  1  0
 36 10  1  0
 18 13  1  0
 27 21  1  0
 36 32  1  0
 29 16  1  0
  1 39  1  0
  1 40  1  0
  1 41  1  0
  2 42  1  0
  2 43  1  0
  4 44  1  0
 11 45  1  0
 14 46  1  0
 15 47  1  0
 18 48  1  0
 19 49  1  0
 19 50  1  0
 21 51  1  1
 22 52  1  0
 22 53  1  0
 23 54  1  0
 23 55  1  0
 26 56  1  0
 33 57  1  0
 34 58  1  0
 37 59  1  0
M  END
>  <meeko>  (760) 
{"is_sidechain": [true], "free_energy": -11.53, "intermolecular_energy": 0.0, "internal_energy": -11.53, "cluster_size": 7, "cluster_id": 2, "rank_in_cluster": 1}

>  <_RMSD_MCS_to_ref>  (760) 
1.7472553966299924

$$$$
ligand
     RDKit          3D

 60 65  0  0  0  0  0  0  0  0999 V2000
   24.8710    9.6160    7.7820 C   0  0  0  0  0  0  0  0  0  0  0  0
   25.4240   10.9650    7.3490 C   0  0  0  0  0  0  0  0  0  0  0  0
   26.6280   10.8270    6.4840 C   0  0  0  0  0  0  0  0  0  0  0  0
   26.9320   11.4820    5.3070 C   0  0  0  0  0  0  0  0  0  0  0  0
   28.1290   10.9470    4.9250 N   0  0  0  0  0  0  0  0  0  0  0  0
   29.1210   11.5310    3.6930 S   0  0  0  0  0  6  0  0  0  0  0  0
   28.4070   11.2150    2.4690 O   0  0  0  0  0  0  0  0  0  0  0  0
   30.4280   10.9700    3.9800 O   0  0  0  0  0  0  0  0  0  0  0  0
   29.1670   13.1550    3.8950 O   0  0  0  0  0  0  0  0  0  0  0  0
   28.4500   13.7770    4.8320 C   0  0  0  0  0  0  0  0  0  0  0  0
   28.4110   13.7070    6.2080 C   0  0  0  0  0  0  0  0  0  0  0  0
   27.4260   14.6250    6.6680 C   0  0  0  0  0  0  0  0  0  0  0  0
   26.9450   14.9930    7.9410 C   0  0  0  0  0  0  0  0  0  0  0  0
   25.9350   15.9660    8.0680 C   0  0  0  0  0  0  0  0  0  0  0  0
   25.4290   16.3530    9.3970 C   0  0  0  0  0  0  0  0  0  0  0  0
   24.1320   15.9540    9.8200 C   0  0  0  0  0  0  0  0  0  0  0  0
   23.6200   16.3080   11.0760 C   0  0  0  0  0  0  0  0  0  0  0  0
   24.4320   17.0620   11.8950 C   0  0  0  0  0  0  0  0  0  0  0  0
   25.6950   17.4610   11.5010 C   0  0  0  0  0  0  0  0  0  0  0  0
   26.2200   17.1260   10.2670 C   0  0  0  0  0  0  0  0  0  0  0  0
   26.2680   18.2450   12.5930 C   0  0  0  0  0  0  0  0  0  0  0  0
   27.3640   18.7710   12.5580 O   0  0  0  0  0  0  0  0  0  0  0  0
   25.3440   18.2470   13.6040 N   0  0  0  0  0  0  0  0  0  0  0  0
   25.4970   19.0510   14.8060 C   0  0  2  0  0  0  0  0  0  0  0  0
   26.2560   20.3590   14.5950 C   0  0  0  0  0  0  0  0  0  0  0  0
   26.3150   21.1210   15.9110 C   0  0  0  0  0  0  0  0  0  0  0  0
   26.9410   20.2830   17.0020 C   0  0  0  0  0  0  0  0  0  0  0  0
   27.5390   20.7840   17.9510 O   0  0  0  0  0  0  0  0  0  0  0  0
   26.7620   18.9260   16.9160 N   0  0  0  0  0  0  0  0  0  0  0  0
   26.1810   18.2130   15.8900 C   0  0  0  0  0  0  0  0  0  0  0  0
   26.1780   16.9840   15.9100 O   0  0  0  0  0  0  0  0  0  0  0  0
   24.1980   17.5950   13.2350 C   0  0  0  0  0  0  0  0  0  0  0  0
   23.1550   17.4700   13.8460 O   0  0  0  0  0  0  0  0  0  0  0  0
   25.4230   16.5580    6.9030 C   0  0  0  0  0  0  0  0  0  0  0  0
   25.8820   16.2120    5.6250 C   0  0  0  0  0  0  0  0  0  0  0  0
   26.8850   15.2430    5.5440 C   0  0  0  0  0  0  0  0  0  0  0  0
   27.5220   14.7100    4.4470 N   0  0  0  0  0  0  0  0  0  0  0  0
   28.5510   10.0780    5.8790 C   0  0  0  0  0  0  0  0  0  0  0  0
   27.6490    9.9650    6.8320 N   0  0  0  0  0  0  0  0  0  0  0  0
   24.8497    9.5640    8.8806 H   0  0  0  0  0  0  0  0  0  0  0  0
   23.8507    9.4948    7.3893 H   0  0  0  0  0  0  0  0  0  0  0  0
   25.5127    8.8135    7.3893 H   0  0  0  0  0  0  0  0  0  0  0  0
   24.6454   11.5041    6.7893 H   0  0  0  0  0  0  0  0  0  0  0  0
   25.7195   11.5156    8.2543 H   0  0  0  0  0  0  0  0  0  0  0  0
   26.3442   12.2576    4.7942 H   0  0  0  0  0  0  0  0  0  0  0  0
   29.0325   13.0555    6.8399 H   0  0  0  0  0  0  0  0  0  0  0  0
   27.3614   14.5170    8.8410 H   0  0  0  0  0  0  0  0  0  0  0  0
   23.5118   15.3496    9.1418 H   0  0  0  0  0  0  0  0  0  0  0  0
   22.6138   15.9974   11.3939 H   0  0  0  0  0  0  0  0  0  0  0  0
   27.2279   17.4545    9.9733 H   0  0  0  0  0  0  0  0  0  0  0  0
   24.4836   19.3453   15.1165 H   0  0  0  0  0  0  0  0  0  0  0  0
   27.2775   20.1402   14.2504 H   0  0  0  0  0  0  0  0  0  0  0  0
   25.7399   20.9679   13.8381 H   0  0  0  0  0  0  0  0  0  0  0  0
   26.9142   22.0327   15.7708 H   0  0  0  0  0  0  0  0  0  0  0  0
   25.2878   21.3736   16.2128 H   0  0  0  0  0  0  0  0  0  0  0  0
   27.1032   18.3729   17.7151 H   0  0  0  0  0  0  0  0  0  0  0  0
   24.6346   17.3194    6.9963 H   0  0  0  0  0  0  0  0  0  0  0  0
   25.4690   16.6846    4.7216 H   0  0  0  0  0  0  0  0  0  0  0  0
   27.3283   14.9754    3.4708 H   0  0  0  0  0  0  0  0  0  0  0  0
   29.5120    9.5431    5.8588 H   0  0  0  0  0  0  0  0  0  0  0  0
  1  2  1  0
  2  3  1  0
  3  4  2  0
  4  5  1  0
  5  6  1  0
  6  7  2  0
  6  8  2  0
  6  9  1  0
  9 10  1  0
 10 11  2  0
 11 12  1  0
 12 13  2  0
 13 14  1  0
 14 15  1  0
 15 16  2  0
 16 17  1  0
 17 18  2  0
 18 19  1  0
 19 20  2  0
 19 21  1  0
 21 22  2  0
 21 23  1  0
 23 24  1  0
 24 25  1  0
 25 26  1  0
 26 27  1  0
 27 28  2  0
 27 29  1  0
 29 30  1  0
 30 31  2  0
 23 32  1  0
 32 33  2  0
 14 34  2  0
 34 35  1  0
 35 36  2  0
 36 37  1  0
  5 38  1  0
 38 39  2  0
 39  3  1  0
 37 10  1  0
 36 12  1  0
 20 15  1  0
 30 24  1  0
 32 18  1  0
  1 40  1  0
  1 41  1  0
  1 42  1  0
  2 43  1  0
  2 44  1  0
  4 45  1  0
 11 46  1  0
 13 47  1  0
 16 48  1  0
 17 49  1  0
 20 50  1  0
 24 51  1  1
 25 52  1  0
 25 53  1  0
 26 54  1  0
 26 55  1  0
 29 56  1  0
 34 57  1  0
 35 58  1  0
 37 59  1  0
 38 60  1  0
M  END
>  <meeko>  (761) 
{"is_sidechain": [true], "free_energy": -11.53, "intermolecular_energy": 0.0, "internal_energy": -11.53, "cluster_size": 20, "cluster_id": 1, "rank_in_cluster": 1}

>  <_RMSD_MCS_to_ref>  (761) 
1.7953969067121565

$$$$
ligand
     RDKit          3D

 60 64  0  0  0  0  0  0  0  0999 V2000
   24.8540    9.4020    7.6050 C   0  0  0  0  0  0  0  0  0  0  0  0
   25.5230   10.7550    7.4270 C   0  0  0  0  0  0  0  0  0  0  0  0
   26.9930   10.6340    7.2280 C   0  0  0  0  0  0  0  0  0  0  0  0
   27.7700   11.1000    6.1860 C   0  0  0  0  0  0  0  0  0  0  0  0
   29.0390   10.7310    6.5250 N   0  0  0  0  0  0  0  0  0  0  0  0
   30.4020   10.9000    5.5700 S   0  0  0  0  0  6  0  0  0  0  0  0
   31.5470   10.7160    6.4390 O   0  0  0  0  0  0  0  0  0  0  0  0
   30.1880   10.0860    4.3880 O   0  0  0  0  0  0  0  0  0  0  0  0
   30.5120   12.5410    4.9900 C   0  0  0  0  0  0  0  0  0  0  0  0
   31.3480   12.9810    4.0670 N   0  0  0  0  0  0  0  0  0  0  0  0
   31.1360   14.3330    3.9070 N   0  0  0  0  0  0  0  0  0  0  0  0
   30.1780   14.6900    4.7320 C   0  0  0  0  0  0  0  0  0  0  0  0
   29.7570   13.5880    5.4250 N   0  0  0  0  0  0  0  0  0  0  0  0
   28.7480   13.6230    6.4620 C   0  0  0  0  0  0  0  0  0  0  0  0
   27.9840   14.9580    6.4410 C   0  0  1  0  0  0  0  0  0  0  0  0
   27.1880   15.1230    7.7490 C   0  0  0  0  0  0  0  0  0  0  0  0
   26.1950   14.4450    7.9820 O   0  0  0  0  0  0  0  0  0  0  0  0
   27.7100   16.1310    8.5410 N   0  0  0  0  0  0  0  0  0  0  0  0
   27.2270   16.6130    9.7700 C   0  0  0  0  0  0  0  0  0  0  0  0
   26.3350   15.9150   10.5830 C   0  0  0  0  0  0  0  0  0  0  0  0
   25.8920   16.4690   11.7910 C   0  0  0  0  0  0  0  0  0  0  0  0
   26.3310   17.7330   12.2080 C   0  0  0  0  0  0  0  0  0  0  0  0
   25.8570   18.2960   13.5370 C   0  0  1  0  0  0  0  0  0  0  0  0
   26.5970   17.6120   14.6920 C   0  0  0  0  0  0  0  0  0  0  0  0
   26.0730   18.1310   16.0200 C   0  0  0  0  0  0  0  0  0  0  0  0
   26.2050   19.6300   16.1080 C   0  0  0  0  0  0  0  0  0  0  0  0
   26.3020   20.2210   17.1790 O   0  0  0  0  0  0  0  0  0  0  0  0
   26.1480   20.3180   14.9220 N   0  0  0  0  0  0  0  0  0  0  0  0
   25.9900   19.8150   13.6500 C   0  0  0  0  0  0  0  0  0  0  0  0
   25.9100   20.5880   12.6970 O   0  0  0  0  0  0  0  0  0  0  0  0
   27.2340   18.4270   11.3910 C   0  0  0  0  0  0  0  0  0  0  0  0
   27.6710   17.8730   10.1830 C   0  0  0  0  0  0  0  0  0  0  0  0
   28.8810   16.1390    6.2390 N   0  0  0  0  0  0  0  0  0  0  0  0
   29.5650   16.0300    4.9340 C   0  0  0  0  0  0  0  0  0  0  0  0
   29.0030   10.0210    7.6800 C   0  0  0  0  0  0  0  0  0  0  0  0
   27.7750    9.9690    8.1510 N   0  0  0  0  0  0  0  0  0  0  0  0
   24.7464    9.1845    8.6779 H   0  0  0  0  0  0  0  0  0  0  0  0
   23.8606    9.4192    7.1330 H   0  0  0  0  0  0  0  0  0  0  0  0
   25.4708    8.6230    7.1330 H   0  0  0  0  0  0  0  0  0  0  0  0
   25.0865   11.2531    6.5487 H   0  0  0  0  0  0  0  0  0  0  0  0
   25.3535   11.3386    8.3439 H   0  0  0  0  0  0  0  0  0  0  0  0
   27.4412   11.6441    5.2883 H   0  0  0  0  0  0  0  0  0  0  0  0
   28.0374   12.7990    6.3008 H   0  0  0  0  0  0  0  0  0  0  0  0
   29.2440   13.5177    7.4381 H   0  0  0  0  0  0  0  0  0  0  0  0
   27.2996   14.9245    5.5805 H   0  0  0  0  0  0  0  0  0  0  0  0
   28.5620   16.5865    8.1839 H   0  0  0  0  0  0  0  0  0  0  0  0
   25.9765   14.9221   10.2737 H   0  0  0  0  0  0  0  0  0  0  0  0
   25.1896   15.9039   12.4213 H   0  0  0  0  0  0  0  0  0  0  0  0
   24.7799   18.0803   13.5949 H   0  0  0  0  0  0  0  0  0  0  0  0
   26.4361   16.5253   14.6358 H   0  0  0  0  0  0  0  0  0  0  0  0
   27.6719   17.8327   14.6152 H   0  0  0  0  0  0  0  0  0  0  0  0
   25.0122   17.8575   16.1191 H   0  0  0  0  0  0  0  0  0  0  0  0
   26.6661   17.6803   16.8294 H   0  0  0  0  0  0  0  0  0  0  0  0
   26.2345   21.3419   14.9923 H   0  0  0  0  0  0  0  0  0  0  0  0
   27.6022   19.4157   11.7023 H   0  0  0  0  0  0  0  0  0  0  0  0
   28.3728   18.4358    9.5500 H   0  0  0  0  0  0  0  0  0  0  0  0
   28.3197   17.0024    6.2599 H   0  0  0  0  0  0  0  0  0  0  0  0
   28.8319   16.2086    4.1336 H   0  0  0  0  0  0  0  0  0  0  0  0
   30.3716   16.7776    4.9117 H   0  0  0  0  0  0  0  0  0  0  0  0
   29.8776    9.5540    8.1564 H   0  0  0  0  0  0  0  0  0  0  0  0
  1  2  1  0
  2  3  1  0
  3  4  2  0
  4  5  1  0
  5  6  1  0
  6  7  2  0
  6  8  2  0
  6  9  1  0
  9 10  2  0
 10 11  1  0
 11 12  2  0
 12 13  1  0
 13 14  1  0
 14 15  1  0
 15 16  1  0
 16 17  2  0
 16 18  1  0
 18 19  1  0
 19 20  2  0
 20 21  1  0
 21 22  2  0
 22 23  1  0
 23 24  1  0
 24 25  1  0
 25 26  1  0
 26 27  2  0
 26 28  1  0
 28 29  1  0
 29 30  2  0
 22 31  1  0
 31 32  2  0
 15 33  1  0
 33 34  1  0
  5 35  1  0
 35 36  2  0
 36  3  1  0
 13  9  1  0
 32 19  1  0
 34 12  1  0
 29 23  1  0
  1 37  1  0
  1 38  1  0
  1 39  1  0
  2 40  1  0
  2 41  1  0
  4 42  1  0
 14 43  1  0
 14 44  1  0
 15 45  1  6
 18 46  1  0
 20 47  1  0
 21 48  1  0
 23 49  1  1
 24 50  1  0
 24 51  1  0
 25 52  1  0
 25 53  1  0
 28 54  1  0
 31 55  1  0
 32 56  1  0
 33 57  1  0
 34 58  1  0
 34 59  1  0
 35 60  1  0
M  END
>  <meeko>  (762) 
{"is_sidechain": [true], "free_energy": -11.52, "intermolecular_energy": 0.0, "internal_energy": -11.52, "cluster_size": 10, "cluster_id": 1, "rank_in_cluster": 1}

>  <_RMSD_MCS_to_ref>  (762) 
1.2019465462324013

$$$$
ligand
     RDKit          3D

 59 64  0  0  0  0  0  0  0  0999 V2000
   24.8540    9.4020    7.6050 C   0  0  0  0  0  0  0  0  0  0  0  0
   25.5230   10.7550    7.4270 C   0  0  0  0  0  0  0  0  0  0  0  0
   24.8020   11.6110    6.4450 C   0  0  0  0  0  0  0  0  0  0  0  0
   25.1960   12.0020    5.1800 C   0  0  0  0  0  0  0  0  0  0  0  0
   24.1660   12.7810    4.7360 N   0  0  0  0  0  0  0  0  0  0  0  0
   24.2130   13.7600    3.3750 S   0  0  0  0  0  6  0  0  0  0  0  0
   22.9690   14.4980    3.3410 O   0  0  0  0  0  0  0  0  0  0  0  0
   24.6690   12.9170    2.2870 O   0  0  0  0  0  0  0  0  0  0  0  0
   25.4740   14.9480    3.5720 C   0  0  0  0  0  0  0  0  0  0  0  0
   26.2660   15.2690    2.5040 N   0  0  0  0  0  0  0  0  0  0  0  0
   27.2630   16.1310    2.7750 N   0  0  0  0  0  0  0  0  0  0  0  0
   27.1110   16.4310    4.0740 C   0  0  0  0  0  0  0  0  0  0  0  0
   27.8700   17.2710    4.8990 C   0  0  0  0  0  0  0  0  0  0  0  0
   27.4170   17.3160    6.2400 C   0  0  0  0  0  0  0  0  0  0  0  0
   26.2770   16.5940    6.7460 C   0  0  0  0  0  0  0  0  0  0  0  0
   25.9100   16.7090    8.1740 C   0  0  0  0  0  0  0  0  0  0  0  0
   24.7910   16.0070    8.6940 C   0  0  0  0  0  0  0  0  0  0  0  0
   24.4330   16.0950   10.0440 C   0  0  0  0  0  0  0  0  0  0  0  0
   25.2120   16.8930   10.8550 C   0  0  0  0  0  0  0  0  0  0  0  0
   26.3190   17.5920   10.3830 C   0  0  0  0  0  0  0  0  0  0  0  0
   26.6770   17.5120    9.0470 C   0  0  0  0  0  0  0  0  0  0  0  0
   26.9710   18.3360   11.5000 C   0  0  0  0  0  0  0  0  0  0  0  0
   26.0750   18.0740   12.6200 N   0  0  0  0  0  0  0  0  0  0  0  0
   26.4140   18.3750   14.0060 C   0  0  2  0  0  0  0  0  0  0  0  0
   26.0500   17.2360   14.9550 C   0  0  0  0  0  0  0  0  0  0  0  0
   26.5140   17.5850   16.3620 C   0  0  0  0  0  0  0  0  0  0  0  0
   25.9340   18.9040   16.8160 C   0  0  0  0  0  0  0  0  0  0  0  0
   25.6120   19.1140   17.9820 O   0  0  0  0  0  0  0  0  0  0  0  0
   25.8000   19.8780   15.8590 N   0  0  0  0  0  0  0  0  0  0  0  0
   25.7450   19.6700   14.4990 C   0  0  0  0  0  0  0  0  0  0  0  0
   25.1870   20.4860   13.7700 O   0  0  0  0  0  0  0  0  0  0  0  0
   25.0810   17.1640   12.2910 C   0  0  0  0  0  0  0  0  0  0  0  0
   24.2470   16.6680   13.0240 O   0  0  0  0  0  0  0  0  0  0  0  0
   25.4980   15.7580    5.9030 C   0  0  0  0  0  0  0  0  0  0  0  0
   25.9750   15.7140    4.5960 C   0  0  0  0  0  0  0  0  0  0  0  0
   23.2160   12.8580    5.7020 C   0  0  0  0  0  0  0  0  0  0  0  0
   23.5740   12.1580    6.7590 N   0  0  0  0  0  0  0  0  0  0  0  0
   24.7464    9.1845    8.6779 H   0  0  0  0  0  0  0  0  0  0  0  0
   23.8606    9.4192    7.1330 H   0  0  0  0  0  0  0  0  0  0  0  0
   25.4708    8.6230    7.1330 H   0  0  0  0  0  0  0  0  0  0  0  0
   25.5447   11.2706    8.3984 H   0  0  0  0  0  0  0  0  0  0  0  0
   26.5397   10.5826    7.0441 H   0  0  0  0  0  0  0  0  0  0  0  0
   26.1259   11.7449    4.6517 H   0  0  0  0  0  0  0  0  0  0  0  0
   26.1108   14.8801    1.5630 H   0  0  0  0  0  0  0  0  0  0  0  0
   28.7378   17.8429    4.5385 H   0  0  0  0  0  0  0  0  0  0  0  0
   27.9756   17.9476    6.9464 H   0  0  0  0  0  0  0  0  0  0  0  0
   24.1908   15.3787    8.0195 H   0  0  0  0  0  0  0  0  0  0  0  0
   23.5649   15.5494   10.4423 H   0  0  0  0  0  0  0  0  0  0  0  0
   27.5486   18.0675    8.6704 H   0  0  0  0  0  0  0  0  0  0  0  0
   27.9808   17.9481   11.6998 H   0  0  0  0  0  0  0  0  0  0  0  0
   27.1097   19.4070   11.2910 H   0  0  0  0  0  0  0  0  0  0  0  0
   27.5058   18.5087   14.0161 H   0  0  0  0  0  0  0  0  0  0  0  0
   24.9596   17.0907   14.9532 H   0  0  0  0  0  0  0  0  0  0  0  0
   26.5421   16.3095   14.6242 H   0  0  0  0  0  0  0  0  0  0  0  0
   26.1900   16.7933   17.0536 H   0  0  0  0  0  0  0  0  0  0  0  0
   27.6107   17.6697   16.3566 H   0  0  0  0  0  0  0  0  0  0  0  0
   25.7347   20.8521   16.1873 H   0  0  0  0  0  0  0  0  0  0  0  0
   24.6118   15.2041    6.2463 H   0  0  0  0  0  0  0  0  0  0  0  0
   22.2779   13.4257    5.6146 H   0  0  0  0  0  0  0  0  0  0  0  0
  1  2  1  0
  2  3  1  0
  3  4  2  0
  4  5  1  0
  5  6  1  0
  6  7  2  0
  6  8  2  0
  6  9  1  0
  9 10  1  0
 10 11  1  0
 11 12  2  0
 12 13  1  0
 13 14  2  0
 14 15  1  0
 15 16  1  0
 16 17  2  0
 17 18  1  0
 18 19  2  0
 19 20  1  0
 20 21  2  0
 20 22  1  0
 22 23  1  0
 23 24  1  0
 24 25  1  0
 25 26  1  0
 26 27  1  0
 27 28  2  0
 27 29  1  0
 29 30  1  0
 30 31  2  0
 23 32  1  0
 32 33  2  0
 15 34  2  0
 34 35  1  0
  5 36  1  0
 36 37  2  0
 37  3  1  0
 35  9  2  0
 35 12  1  0
 21 16  1  0
 30 24  1  0
 32 19  1  0
  1 38  1  0
  1 39  1  0
  1 40  1  0
  2 41  1  0
  2 42  1  0
  4 43  1  0
 10 44  1  0
 13 45  1  0
 14 46  1  0
 17 47  1  0
 18 48  1  0
 21 49  1  0
 22 50  1  0
 22 51  1  0
 24 52  1  6
 25 53  1  0
 25 54  1  0
 26 55  1  0
 26 56  1  0
 29 57  1  0
 34 58  1  0
 36 59  1  0
M  END
>  <meeko>  (763) 
{"is_sidechain": [true], "free_energy": -11.52, "intermolecular_energy": 0.0, "internal_energy": -11.52, "cluster_size": 11, "cluster_id": 1, "rank_in_cluster": 1}

>  <_RMSD_MCS_to_ref>  (763) 
1.3399654638998884

$$$$
ligand
     RDKit          3D

 60 65  0  0  0  0  0  0  0  0999 V2000
   24.8540    9.4020    7.6050 C   0  0  0  0  0  0  0  0  0  0  0  0
   25.5230   10.7550    7.4270 C   0  0  0  0  0  0  0  0  0  0  0  0
   24.7400   11.6570    6.5400 C   0  0  0  0  0  0  0  0  0  0  0  0
   25.1370   12.2950    5.3800 C   0  0  0  0  0  0  0  0  0  0  0  0
   24.0200   12.9650    4.9690 N   0  0  0  0  0  0  0  0  0  0  0  0
   23.9540   14.0930    3.7250 S   0  0  0  0  0  6  0  0  0  0  0  0
   24.7880   13.5630    2.6650 O   0  0  0  0  0  0  0  0  0  0  0  0
   22.5490   14.3930    3.5340 O   0  0  0  0  0  0  0  0  0  0  0  0
   24.7530   15.5200    4.4160 C   0  0  0  0  0  0  0  0  0  0  0  0
   25.0300   16.6180    3.5900 C   0  0  0  0  0  0  0  0  0  0  0  0
   25.6620   17.7550    4.1100 C   0  0  0  0  0  0  0  0  0  0  0  0
   26.0210   17.7700    5.4710 C   0  0  0  0  0  0  0  0  0  0  0  0
   25.7390   16.6490    6.2500 C   0  0  0  0  0  0  0  0  0  0  0  0
   25.1110   15.5020    5.7710 C   0  0  0  0  0  0  0  0  0  0  0  0
   26.1590   16.8340    7.5340 O   0  0  0  0  0  0  0  0  0  0  0  0
   26.7130   18.0800    7.5850 C   0  0  0  0  0  0  0  0  0  0  0  0
   27.2790   18.7180    8.6840 C   0  0  0  0  0  0  0  0  0  0  0  0
   27.3550   18.0850    9.9330 N   0  0  0  0  0  0  0  0  0  0  0  0
   26.3570   17.6010   10.7930 C   0  0  0  0  0  0  0  0  0  0  0  0
   25.8770   16.2980   10.6170 C   0  0  0  0  0  0  0  0  0  0  0  0
   24.9400   15.7500   11.4960 C   0  0  0  0  0  0  0  0  0  0  0  0
   24.4760   16.4960   12.5790 C   0  0  0  0  0  0  0  0  0  0  0  0
   24.9310   17.8040   12.7850 C   0  0  0  0  0  0  0  0  0  0  0  0
   24.4550   18.5880   13.9980 C   0  0  1  0  0  0  0  0  0  0  0  0
   24.9910   18.0180   15.3170 C   0  0  0  0  0  0  0  0  0  0  0  0
   26.4660   18.3400   15.5180 C   0  0  0  0  0  0  0  0  0  0  0  0
   26.7560   19.8090   15.3260 C   0  0  0  0  0  0  0  0  0  0  0  0
   27.8000   20.3260   15.7160 O   0  0  0  0  0  0  0  0  0  0  0  0
   25.8240   20.5420   14.6370 N   0  0  0  0  0  0  0  0  0  0  0  0
   24.7470   20.0810   13.9160 C   0  0  0  0  0  0  0  0  0  0  0  0
   24.0960   20.8510   13.2130 O   0  0  0  0  0  0  0  0  0  0  0  0
   25.8630   18.3350   11.8770 C   0  0  0  0  0  0  0  0  0  0  0  0
   27.7710   19.9640    8.4480 N   0  0  0  0  0  0  0  0  0  0  0  0
   27.6760   20.4940    7.2110 C   0  0  0  0  0  0  0  0  0  0  0  0
   27.1380   19.9340    6.1140 N   0  0  0  0  0  0  0  0  0  0  0  0
   26.6540   18.6930    6.3450 C   0  0  0  0  0  0  0  0  0  0  0  0
   23.0260   12.7720    5.8720 C   0  0  0  0  0  0  0  0  0  0  0  0
   23.4280   11.9720    6.8370 N   0  0  0  0  0  0  0  0  0  0  0  0
   24.7464    9.1845    8.6779 H   0  0  0  0  0  0  0  0  0  0  0  0
   23.8606    9.4192    7.1330 H   0  0  0  0  0  0  0  0  0  0  0  0
   25.4708    8.6230    7.1330 H   0  0  0  0  0  0  0  0  0  0  0  0
   25.6273   11.2311    8.4132 H   0  0  0  0  0  0  0  0  0  0  0  0
   26.5036   10.5876    6.9574 H   0  0  0  0  0  0  0  0  0  0  0  0
   26.1256   12.2691    4.8984 H   0  0  0  0  0  0  0  0  0  0  0  0
   24.7494   16.5867    2.5269 H   0  0  0  0  0  0  0  0  0  0  0  0
   25.8740   18.6211    3.4659 H   0  0  0  0  0  0  0  0  0  0  0  0
   24.9083   14.6348    6.4167 H   0  0  0  0  0  0  0  0  0  0  0  0
   28.3149   17.9513   10.2816 H   0  0  0  0  0  0  0  0  0  0  0  0
   26.2437   15.6958    9.7727 H   0  0  0  0  0  0  0  0  0  0  0  0
   24.5673   14.7279   11.3336 H   0  0  0  0  0  0  0  0  0  0  0  0
   23.7482   16.0542   13.2755 H   0  0  0  0  0  0  0  0  0  0  0  0
   23.3615   18.4692   13.9870 H   0  0  0  0  0  0  0  0  0  0  0  0
   24.4163   18.4490   16.1501 H   0  0  0  0  0  0  0  0  0  0  0  0
   24.8827   16.9238   15.2842 H   0  0  0  0  0  0  0  0  0  0  0  0
   26.7565   18.0512   16.5389 H   0  0  0  0  0  0  0  0  0  0  0  0
   27.0414   17.7793   14.7666 H   0  0  0  0  0  0  0  0  0  0  0  0
   25.9455   21.5645   14.6625 H   0  0  0  0  0  0  0  0  0  0  0  0
   26.2173   19.3660   12.0239 H   0  0  0  0  0  0  0  0  0  0  0  0
   28.0884   21.5060    7.0851 H   0  0  0  0  0  0  0  0  0  0  0  0
   22.0241   13.2213    5.8068 H   0  0  0  0  0  0  0  0  0  0  0  0
  1  2  1  0
  2  3  1  0
  3  4  2  0
  4  5  1  0
  5  6  1  0
  6  7  2  0
  6  8  2  0
  6  9  1  0
  9 10  2  0
 10 11  1  0
 11 12  2  0
 12 13  1  0
 13 14  2  0
 13 15  1  0
 15 16  1  0
 16 17  2  0
 17 18  1  0
 18 19  1  0
 19 20  2  0
 20 21  1  0
 21 22  2  0
 22 23  1  0
 23 24  1  0
 24 25  1  0
 25 26  1  0
 26 27  1  0
 27 28  2  0
 27 29  1  0
 29 30  1  0
 30 31  2  0
 23 32  2  0
 17 33  1  0
 33 34  2  0
 34 35  1  0
 35 36  2  0
  5 37  1  0
 37 38  2  0
 38  3  1  0
 14  9  1  0
 36 16  1  0
 36 12  1  0
 32 19  1  0
 30 24  1  0
  1 39  1  0
  1 40  1  0
  1 41  1  0
  2 42  1  0
  2 43  1  0
  4 44  1  0
 10 45  1  0
 11 46  1  0
 14 47  1  0
 18 48  1  0
 20 49  1  0
 21 50  1  0
 22 51  1  0
 24 52  1  1
 25 53  1  0
 25 54  1  0
 26 55  1  0
 26 56  1  0
 29 57  1  0
 32 58  1  0
 34 59  1  0
 37 60  1  0
M  END
>  <meeko>  (764) 
{"is_sidechain": [true], "free_energy": -11.52, "intermolecular_energy": 0.0, "internal_energy": -11.52, "cluster_size": 19, "cluster_id": 1, "rank_in_cluster": 1}

>  <_RMSD_MCS_to_ref>  (764) 
1.024794064678363

$$$$
ligand
     RDKit          3D

 60 65  0  0  0  0  0  0  0  0999 V2000
   24.8710    9.6160    7.7820 C   0  0  0  0  0  0  0  0  0  0  0  0
   25.4240   10.9650    7.3490 C   0  0  0  0  0  0  0  0  0  0  0  0
   25.3090   11.1740    5.8800 C   0  0  0  0  0  0  0  0  0  0  0  0
   26.2900   11.5150    4.9710 C   0  0  0  0  0  0  0  0  0  0  0  0
   25.6420   11.5330    3.7680 N   0  0  0  0  0  0  0  0  0  0  0  0
   26.2690   12.1270    2.3210 S   0  0  0  0  0  6  0  0  0  0  0  0
   27.6590   11.7140    2.3250 O   0  0  0  0  0  0  0  0  0  0  0  0
   25.3410   11.6740    1.3030 O   0  0  0  0  0  0  0  0  0  0  0  0
   26.1910   13.7530    2.4340 O   0  0  0  0  0  0  0  0  0  0  0  0
   26.2220   14.4440    3.6260 C   0  0  0  0  0  0  0  0  0  0  0  0
   27.2310   15.5010    3.6370 C   0  0  0  0  0  0  0  0  0  0  0  0
   27.3800   16.2630    4.7330 C   0  0  0  0  0  0  0  0  0  0  0  0
   26.5660   16.0270    5.8350 N   0  0  0  0  0  0  0  0  0  0  0  0
   26.5310   16.6630    7.0500 C   0  0  0  0  0  0  0  0  0  0  0  0
   25.5380   16.0340    7.7730 C   0  0  0  0  0  0  0  0  0  0  0  0
   25.1140   16.3520    9.1300 C   0  0  0  0  0  0  0  0  0  0  0  0
   23.8200   15.9590    9.5560 C   0  0  0  0  0  0  0  0  0  0  0  0
   23.3480   16.2360   10.8460 C   0  0  0  0  0  0  0  0  0  0  0  0
   24.1880   16.9070   11.7130 C   0  0  0  0  0  0  0  0  0  0  0  0
   25.4610   17.2880   11.2950 C   0  0  0  0  0  0  0  0  0  0  0  0
   25.9490   17.0320   10.0260 C   0  0  0  0  0  0  0  0  0  0  0  0
   26.1200   17.9740   12.4100 C   0  0  0  0  0  0  0  0  0  0  0  0
   27.2240   18.4810   12.3630 O   0  0  0  0  0  0  0  0  0  0  0  0
   25.2480   17.9200   13.4870 N   0  0  0  0  0  0  0  0  0  0  0  0
   25.4620   18.7090   14.6940 C   0  0  2  0  0  0  0  0  0  0  0  0
   26.2040   20.0130   14.4150 C   0  0  0  0  0  0  0  0  0  0  0  0
   26.3070   20.8210   15.7000 C   0  0  0  0  0  0  0  0  0  0  0  0
   26.9680   20.0200   16.7960 C   0  0  0  0  0  0  0  0  0  0  0  0
   27.7100   20.5320   17.6290 O   0  0  0  0  0  0  0  0  0  0  0  0
   26.6840   18.6770   16.8320 N   0  0  0  0  0  0  0  0  0  0  0  0
   26.2210   17.9240   15.7770 C   0  0  0  0  0  0  0  0  0  0  0  0
   26.4310   16.7130   15.7420 O   0  0  0  0  0  0  0  0  0  0  0  0
   23.9590   17.3460   13.1200 C   0  0  0  0  0  0  0  0  0  0  0  0
   24.9650   15.0250    7.0260 N   0  0  0  0  0  0  0  0  0  0  0  0
   25.5930   15.0360    5.8700 C   0  0  0  0  0  0  0  0  0  0  0  0
   25.4370   14.2280    4.7060 C   0  0  0  0  0  0  0  0  0  0  0  0
   24.3200   11.2970    3.9730 C   0  0  0  0  0  0  0  0  0  0  0  0
   24.0880   11.0510    5.2450 N   0  0  0  0  0  0  0  0  0  0  0  0
   24.8497    9.5640    8.8806 H   0  0  0  0  0  0  0  0  0  0  0  0
   23.8507    9.4948    7.3893 H   0  0  0  0  0  0  0  0  0  0  0  0
   25.5127    8.8135    7.3893 H   0  0  0  0  0  0  0  0  0  0  0  0
   24.8645   11.7594    7.8648 H   0  0  0  0  0  0  0  0  0  0  0  0
   26.4918   10.9925    7.6116 H   0  0  0  0  0  0  0  0  0  0  0  0
   27.3514   11.7245    5.1696 H   0  0  0  0  0  0  0  0  0  0  0  0
   27.8641   15.6714    2.7538 H   0  0  0  0  0  0  0  0  0  0  0  0
   28.1353   17.0623    4.7583 H   0  0  0  0  0  0  0  0  0  0  0  0
   27.1633   17.5006    7.3796 H   0  0  0  0  0  0  0  0  0  0  0  0
   23.1673   15.4207    8.8530 H   0  0  0  0  0  0  0  0  0  0  0  0
   22.3392   15.9284   11.1586 H   0  0  0  0  0  0  0  0  0  0  0  0
   26.9591   17.3518    9.7304 H   0  0  0  0  0  0  0  0  0  0  0  0
   24.4543   18.9475   15.0649 H   0  0  0  0  0  0  0  0  0  0  0  0
   27.2137   19.7879   14.0412 H   0  0  0  0  0  0  0  0  0  0  0  0
   25.6549   20.5936   13.6591 H   0  0  0  0  0  0  0  0  0  0  0  0
   26.9019   21.7262   15.5082 H   0  0  0  0  0  0  0  0  0  0  0  0
   25.2910   21.0873   16.0269 H   0  0  0  0  0  0  0  0  0  0  0  0
   26.8304   18.1901   17.7277 H   0  0  0  0  0  0  0  0  0  0  0  0
   23.7058   16.4926   13.7662 H   0  0  0  0  0  0  0  0  0  0  0  0
   23.1199   18.0490   13.2282 H   0  0  0  0  0  0  0  0  0  0  0  0
   24.6797   13.4304    4.6862 H   0  0  0  0  0  0  0  0  0  0  0  0
   23.5513   11.3097    3.1863 H   0  0  0  0  0  0  0  0  0  0  0  0
  1  2  1  0
  2  3  1  0
  3  4  2  0
  4  5  1  0
  5  6  1  0
  6  7  2  0
  6  8  2  0
  6  9  1  0
  9 10  1  0
 10 11  1  0
 11 12  2  0
 12 13  1  0
 13 14  1  0
 14 15  2  0
 15 16  1  0
 16 17  2  0
 17 18  1  0
 18 19  2  0
 19 20  1  0
 20 21  2  0
 20 22  1  0
 22 23  2  0
 22 24  1  0
 24 25  1  0
 25 26  1  0
 26 27  1  0
 27 28  1  0
 28 29  2  0
 28 30  1  0
 30 31  1  0
 31 32  2  0
 24 33  1  0
 15 34  1  0
 34 35  2  0
 35 36  1  0
  5 37  1  0
 37 38  2  0
 38  3  1  0
 36 10  2  0
 35 13  1  0
 21 16  1  0
 31 25  1  0
 33 19  1  0
  1 39  1  0
  1 40  1  0
  1 41  1  0
  2 42  1  0
  2 43  1  0
  4 44  1  0
 11 45  1  0
 12 46  1  0
 14 47  1  0
 17 48  1  0
 18 49  1  0
 21 50  1  0
 25 51  1  1
 26 52  1  0
 26 53  1  0
 27 54  1  0
 27 55  1  0
 30 56  1  0
 33 57  1  0
 33 58  1  0
 36 59  1  0
 37 60  1  0
M  END
>  <meeko>  (765) 
{"is_sidechain": [true], "free_energy": -11.52, "intermolecular_energy": 0.0, "internal_energy": -11.52, "cluster_size": 20, "cluster_id": 1, "rank_in_cluster": 1}

>  <_RMSD_MCS_to_ref>  (765) 
1.7449278558789254

$$$$
ligand
     RDKit          3D

 49 52  0  0  0  0  0  0  0  0999 V2000
   24.8710    9.6160    7.7820 C   0  0  0  0  0  0  0  0  0  0  0  0
   25.4240   10.9650    7.3490 C   0  0  0  0  0  0  0  0  0  0  0  0
   26.7740   11.2270    7.9190 C   0  0  0  0  0  0  0  0  0  0  0  0
   27.1180   11.9400    9.0500 C   0  0  0  0  0  0  0  0  0  0  0  0
   28.4770   11.8250    9.1210 N   0  0  0  0  0  0  0  0  0  0  0  0
   29.4870   12.7150   10.1390 S   0  0  0  0  0  6  0  0  0  0  0  0
   28.9460   12.4840   11.4680 O   0  0  0  0  0  0  0  0  0  0  0  0
   30.8270   12.3100    9.7580 O   0  0  0  0  0  0  0  0  0  0  0  0
   29.2520   14.2810    9.7250 O   0  0  0  0  0  0  0  0  0  0  0  0
   28.1720   14.6710    8.9560 C   0  0  0  0  0  0  0  0  0  0  0  0
   28.2670   14.3140    7.6070 C   0  0  0  0  0  0  0  0  0  0  0  0
   27.2370   14.6380    6.7340 C   0  0  0  0  0  0  0  0  0  0  0  0
   26.1140   15.3050    7.2190 C   0  0  0  0  0  0  0  0  0  0  0  0
   26.0020   15.6460    8.5630 C   0  0  0  0  0  0  0  0  0  0  0  0
   24.9040   16.2730    9.0140 N   0  0  0  0  0  0  0  0  0  0  0  0
   24.8000   16.6000   10.3340 N   0  0  0  0  0  0  0  0  0  0  0  0
   25.8130   16.2680   11.1520 C   0  0  0  0  0  0  0  0  0  0  0  0
   25.7240   16.6550   12.6010 C   0  0  0  0  0  0  0  0  0  0  0  0
   25.5710   15.8310   13.4970 O   0  0  0  0  0  0  0  0  0  0  0  0
   25.8210   18.0150   12.8530 N   0  0  0  0  0  0  0  0  0  0  0  0
   25.6600   18.5760   14.1810 C   0  0  1  0  0  0  0  0  0  0  0  0
   26.6870   18.0010   15.1500 C   0  0  0  0  0  0  0  0  0  0  0  0
   26.4920   18.6160   16.5260 C   0  0  0  0  0  0  0  0  0  0  0  0
   26.5660   20.1230   16.4660 C   0  0  0  0  0  0  0  0  0  0  0  0
   27.0150   20.7980   17.3890 O   0  0  0  0  0  0  0  0  0  0  0  0
   26.0710   20.7180   15.3330 N   0  0  0  0  0  0  0  0  0  0  0  0
   25.7970   20.1040   14.1340 C   0  0  0  0  0  0  0  0  0  0  0  0
   25.6460   20.7740   13.1120 O   0  0  0  0  0  0  0  0  0  0  0  0
   26.9330   15.6230   10.7630 N   0  0  0  0  0  0  0  0  0  0  0  0
   27.0380   15.3240    9.4600 C   0  0  0  0  0  0  0  0  0  0  0  0
   28.9200   11.1440    8.0330 C   0  0  0  0  0  0  0  0  0  0  0  0
   27.9080   10.7490    7.2900 N   0  0  0  0  0  0  0  0  0  0  0  0
   24.8497    9.5640    8.8806 H   0  0  0  0  0  0  0  0  0  0  0  0
   23.8507    9.4948    7.3893 H   0  0  0  0  0  0  0  0  0  0  0  0
   25.5127    8.8135    7.3893 H   0  0  0  0  0  0  0  0  0  0  0  0
   25.4928   10.9841    6.2513 H   0  0  0  0  0  0  0  0  0  0  0  0
   24.7428   11.7448    7.7203 H   0  0  0  0  0  0  0  0  0  0  0  0
   26.4494   12.4784    9.7378 H   0  0  0  0  0  0  0  0  0  0  0  0
   29.1545   13.7785    7.2390 H   0  0  0  0  0  0  0  0  0  0  0  0
   27.3070   14.3705    5.6693 H   0  0  0  0  0  0  0  0  0  0  0  0
   25.3007   15.5669    6.5262 H   0  0  0  0  0  0  0  0  0  0  0  0
   26.0149   18.6516   12.0668 H   0  0  0  0  0  0  0  0  0  0  0  0
   24.6544   18.3094   14.5383 H   0  0  0  0  0  0  0  0  0  0  0  0
   26.5581   16.9105   15.2151 H   0  0  0  0  0  0  0  0  0  0  0  0
   27.6996   18.2318   14.7875 H   0  0  0  0  0  0  0  0  0  0  0  0
   25.5064   18.3204   16.9148 H   0  0  0  0  0  0  0  0  0  0  0  0
   27.2939   18.2539   17.1862 H   0  0  0  0  0  0  0  0  0  0  0  0
   25.8855   21.7297   15.3864 H   0  0  0  0  0  0  0  0  0  0  0  0
   29.9782   10.9494    7.8043 H   0  0  0  0  0  0  0  0  0  0  0  0
  1  2  1  0
  2  3  1  0
  3  4  2  0
  4  5  1  0
  5  6  1  0
  6  7  2  0
  6  8  2  0
  6  9  1  0
  9 10  1  0
 10 11  2  0
 11 12  1  0
 12 13  2  0
 13 14  1  0
 14 15  2  0
 15 16  1  0
 16 17  2  0
 17 18  1  0
 18 19  2  0
 18 20  1  0
 20 21  1  0
 21 22  1  0
 22 23  1  0
 23 24  1  0
 24 25  2  0
 24 26  1  0
 26 27  1  0
 27 28  2  0
 17 29  1  0
 29 30  2  0
  5 31  1  0
 31 32  2  0
 32  3  1  0
 30 10  1  0
 30 14  1  0
 27 21  1  0
  1 33  1  0
  1 34  1  0
  1 35  1  0
  2 36  1  0
  2 37  1  0
  4 38  1  0
 11 39  1  0
 12 40  1  0
 13 41  1  0
 20 42  1  0
 21 43  1  1
 22 44  1  0
 22 45  1  0
 23 46  1  0
 23 47  1  0
 26 48  1  0
 31 49  1  0
M  END
>  <meeko>  (766) 
{"is_sidechain": [true], "free_energy": -11.52, "intermolecular_energy": 0.0, "internal_energy": -11.52, "cluster_size": 13, "cluster_id": 1, "rank_in_cluster": 1}

>  <_RMSD_MCS_to_ref>  (766) 
0.9209140990221504

$$$$
ligand
     RDKit          3D

 49 52  0  0  0  0  0  0  0  0999 V2000
   24.8710    9.6160    7.7820 C   0  0  0  0  0  0  0  0  0  0  0  0
   25.4240   10.9650    7.3490 C   0  0  0  0  0  0  0  0  0  0  0  0
   26.5100   11.4420    8.2470 C   0  0  0  0  0  0  0  0  0  0  0  0
   27.5550   12.3000    7.9660 C   0  0  0  0  0  0  0  0  0  0  0  0
   28.2600   12.3660    9.1330 N   0  0  0  0  0  0  0  0  0  0  0  0
   29.4800   13.4730    9.4880 S   0  0  0  0  0  6  0  0  0  0  0  0
   30.4560   13.3350    8.4180 O   0  0  0  0  0  0  0  0  0  0  0  0
   29.8360   13.2040   10.8670 O   0  0  0  0  0  0  0  0  0  0  0  0
   28.8000   14.9560    9.4100 O   0  0  0  0  0  0  0  0  0  0  0  0
   27.4340   15.1860    9.4600 C   0  0  0  0  0  0  0  0  0  0  0  0
   26.7020   14.8750    8.3770 C   0  0  0  0  0  0  0  0  0  0  0  0
   25.2260   15.0560    8.3920 C   0  0  0  0  0  0  0  0  0  0  0  0
   24.5080   14.8010    7.4350 O   0  0  0  0  0  0  0  0  0  0  0  0
   24.7200   15.5370    9.6120 N   0  0  0  0  0  0  0  0  0  0  0  0
   23.3990   15.7220    9.8540 N   0  0  0  0  0  0  0  0  0  0  0  0
   23.3650   16.1360   11.1240 C   0  0  0  0  0  0  0  0  0  0  0  0
   24.6480   16.2670   11.7100 C   0  0  0  0  0  0  0  0  0  0  0  0
   24.9430   16.7140   13.0550 C   0  0  0  0  0  0  0  0  0  0  0  0
   25.0240   15.9380   14.0000 O   0  0  0  0  0  0  0  0  0  0  0  0
   25.0870   18.0740   13.1950 N   0  0  0  0  0  0  0  0  0  0  0  0
   25.2400   18.6910   14.5040 C   0  0  1  0  0  0  0  0  0  0  0  0
   26.2910   17.9820   15.3490 C   0  0  0  0  0  0  0  0  0  0  0  0
   26.4480   18.7070   16.6770 C   0  0  0  0  0  0  0  0  0  0  0  0
   26.7850   20.1660   16.4700 C   0  0  0  0  0  0  0  0  0  0  0  0
   27.4950   20.7950   17.2490 O   0  0  0  0  0  0  0  0  0  0  0  0
   26.2270   20.7770   15.3760 N   0  0  0  0  0  0  0  0  0  0  0  0
   25.6570   20.1510   14.2960 C   0  0  0  0  0  0  0  0  0  0  0  0
   25.4750   20.7450   13.2330 O   0  0  0  0  0  0  0  0  0  0  0  0
   25.5030   15.8520   10.7110 C   0  0  0  0  0  0  0  0  0  0  0  0
   26.8450   15.6770   10.6120 N   0  0  0  0  0  0  0  0  0  0  0  0
   27.6110   11.6440   10.0840 C   0  0  0  0  0  0  0  0  0  0  0  0
   26.5530   11.0510    9.5700 N   0  0  0  0  0  0  0  0  0  0  0  0
   24.8497    9.5640    8.8806 H   0  0  0  0  0  0  0  0  0  0  0  0
   23.8507    9.4948    7.3893 H   0  0  0  0  0  0  0  0  0  0  0  0
   25.5127    8.8135    7.3893 H   0  0  0  0  0  0  0  0  0  0  0  0
   25.8233   10.8730    6.3282 H   0  0  0  0  0  0  0  0  0  0  0  0
   24.6035   11.6963    7.3937 H   0  0  0  0  0  0  0  0  0  0  0  0
   27.7703   12.8135    7.0174 H   0  0  0  0  0  0  0  0  0  0  0  0
   27.1967   14.4848    7.4753 H   0  0  0  0  0  0  0  0  0  0  0  0
   22.4309   16.3540   11.6625 H   0  0  0  0  0  0  0  0  0  0  0  0
   25.0866   18.6695   12.3546 H   0  0  0  0  0  0  0  0  0  0  0  0
   24.2826   18.6203   15.0411 H   0  0  0  0  0  0  0  0  0  0  0  0
   25.9748   16.9446   15.5328 H   0  0  0  0  0  0  0  0  0  0  0  0
   27.2526   17.9832   14.8148 H   0  0  0  0  0  0  0  0  0  0  0  0
   25.5053   18.6333   17.2391 H   0  0  0  0  0  0  0  0  0  0  0  0
   27.2713   18.2363   17.2342 H   0  0  0  0  0  0  0  0  0  0  0  0
   26.2368   21.8069   15.3639 H   0  0  0  0  0  0  0  0  0  0  0  0
   27.4418   15.9163   11.4166 H   0  0  0  0  0  0  0  0  0  0  0  0
   27.9251   11.5658   11.1353 H   0  0  0  0  0  0  0  0  0  0  0  0
  1  2  1  0
  2  3  1  0
  3  4  2  0
  4  5  1  0
  5  6  1  0
  6  7  2  0
  6  8  2  0
  6  9  1  0
  9 10  1  0
 10 11  2  0
 11 12  1  0
 12 13  2  0
 12 14  1  0
 14 15  1  0
 15 16  2  0
 16 17  1  0
 17 18  1  0
 18 19  2  0
 18 20  1  0
 20 21  1  0
 21 22  1  0
 22 23  1  0
 23 24  1  0
 24 25  2  0
 24 26  1  0
 26 27  1  0
 27 28  2  0
 17 29  2  0
 29 30  1  0
  5 31  1  0
 31 32  2  0
 32  3  1  0
 30 10  1  0
 29 14  1  0
 27 21  1  0
  1 33  1  0
  1 34  1  0
  1 35  1  0
  2 36  1  0
  2 37  1  0
  4 38  1  0
 11 39  1  0
 16 40  1  0
 20 41  1  0
 21 42  1  1
 22 43  1  0
 22 44  1  0
 23 45  1  0
 23 46  1  0
 26 47  1  0
 30 48  1  0
 31 49  1  0
M  END
>  <meeko>  (767) 
{"is_sidechain": [true], "free_energy": -11.52, "intermolecular_energy": 0.0, "internal_energy": -11.52, "cluster_size": 12, "cluster_id": 1, "rank_in_cluster": 1}

>  <_RMSD_MCS_to_ref>  (767) 
0.7205460121016258

$$$$
ligand
     RDKit          3D

 57 61  0  0  0  0  0  0  0  0999 V2000
   24.8540    9.4020    7.6050 C   0  0  0  0  0  0  0  0  0  0  0  0
   25.5230   10.7550    7.4270 C   0  0  0  0  0  0  0  0  0  0  0  0
   25.0440   11.4630    6.2090 C   0  0  0  0  0  0  0  0  0  0  0  0
   25.3420   12.7380    5.7710 C   0  0  0  0  0  0  0  0  0  0  0  0
   24.6610   12.8560    4.5940 N   0  0  0  0  0  0  0  0  0  0  0  0
   24.5180   14.2440    3.6710 S   0  0  0  0  0  6  0  0  0  0  0  0
   24.1890   13.8140    2.3200 O   0  0  0  0  0  0  0  0  0  0  0  0
   23.6830   15.1620    4.4210 O   0  0  0  0  0  0  0  0  0  0  0  0
   26.0780   14.9960    3.5490 C   0  0  0  0  0  0  0  0  0  0  0  0
   26.7800   15.0490    2.4000 N   0  0  0  0  0  0  0  0  0  0  0  0
   27.9120   15.6820    2.7540 N   0  0  0  0  0  0  0  0  0  0  0  0
   27.9370   16.0610    4.0630 C   0  0  0  0  0  0  0  0  0  0  0  0
   26.7570   15.6350    4.6230 C   0  0  0  0  0  0  0  0  0  0  0  0
   26.3210   15.8050    5.9310 N   0  0  0  0  0  0  0  0  0  0  0  0
   27.1410   15.9280    7.0360 C   0  0  0  0  0  0  0  0  0  0  0  0
   28.3640   15.8430    7.0440 O   0  0  0  0  0  0  0  0  0  0  0  0
   26.4380   16.1590    8.3300 C   0  0  0  0  0  0  0  0  0  0  0  0
   25.1480   15.5990    8.4950 C   0  0  0  0  0  0  0  0  0  0  0  0
   24.4270   15.7670    9.6840 C   0  0  0  0  0  0  0  0  0  0  0  0
   25.0200   16.4870   10.7050 C   0  0  0  0  0  0  0  0  0  0  0  0
   26.2980   17.0200   10.5380 C   0  0  0  0  0  0  0  0  0  0  0  0
   27.0310   16.8780    9.3740 C   0  0  0  0  0  0  0  0  0  0  0  0
   26.6670   17.7120   11.7760 C   0  0  0  0  0  0  0  0  0  0  0  0
   27.6930   18.3450   11.9270 O   0  0  0  0  0  0  0  0  0  0  0  0
   25.6340   17.5050   12.6770 N   0  0  0  0  0  0  0  0  0  0  0  0
   25.4940   18.2160   13.9440 C   0  0  1  0  0  0  0  0  0  0  0  0
   26.3020   17.6040   15.0870 C   0  0  0  0  0  0  0  0  0  0  0  0
   26.0360   18.3820   16.3660 C   0  0  0  0  0  0  0  0  0  0  0  0
   26.3560   19.8480   16.1920 C   0  0  0  0  0  0  0  0  0  0  0  0
   26.6250   20.5770   17.1440 O   0  0  0  0  0  0  0  0  0  0  0  0
   26.2510   20.3560   14.9210 N   0  0  0  0  0  0  0  0  0  0  0  0
   25.8320   19.7070   13.7830 C   0  0  0  0  0  0  0  0  0  0  0  0
   25.6490   20.3340   12.7400 O   0  0  0  0  0  0  0  0  0  0  0  0
   24.4970   16.8370   12.0570 C   0  0  0  0  0  0  0  0  0  0  0  0
   23.9370   11.7260    4.3830 C   0  0  0  0  0  0  0  0  0  0  0  0
   24.1680   10.8480    5.3370 N   0  0  0  0  0  0  0  0  0  0  0  0
   24.7464    9.1845    8.6779 H   0  0  0  0  0  0  0  0  0  0  0  0
   23.8606    9.4192    7.1330 H   0  0  0  0  0  0  0  0  0  0  0  0
   25.4708    8.6230    7.1330 H   0  0  0  0  0  0  0  0  0  0  0  0
   25.3041   11.3770    8.3074 H   0  0  0  0  0  0  0  0  0  0  0  0
   26.6041   10.5851    7.3157 H   0  0  0  0  0  0  0  0  0  0  0  0
   25.9821   13.4876    6.2592 H   0  0  0  0  0  0  0  0  0  0  0  0
   28.6860   15.8631    2.0990 H   0  0  0  0  0  0  0  0  0  0  0  0
   28.7465   16.6037    4.5731 H   0  0  0  0  0  0  0  0  0  0  0  0
   25.3040   15.8424    6.0898 H   0  0  0  0  0  0  0  0  0  0  0  0
   24.7029   15.0200    7.6724 H   0  0  0  0  0  0  0  0  0  0  0  0
   23.4204   15.3395    9.8020 H   0  0  0  0  0  0  0  0  0  0  0  0
   28.0369   17.3115    9.2730 H   0  0  0  0  0  0  0  0  0  0  0  0
   24.4356   18.1130   14.2254 H   0  0  0  0  0  0  0  0  0  0  0  0
   26.0034   16.5546   15.2268 H   0  0  0  0  0  0  0  0  0  0  0  0
   27.3741   17.6499   14.8450 H   0  0  0  0  0  0  0  0  0  0  0  0
   24.9749   18.2762   16.6359 H   0  0  0  0  0  0  0  0  0  0  0  0
   26.6811   17.9772   17.1597 H   0  0  0  0  0  0  0  0  0  0  0  0
   26.5187   21.3439   14.8054 H   0  0  0  0  0  0  0  0  0  0  0  0
   24.2127   15.9346   12.6182 H   0  0  0  0  0  0  0  0  0  0  0  0
   23.5893   17.4576   12.0268 H   0  0  0  0  0  0  0  0  0  0  0  0
   23.2544   11.5669    3.5352 H   0  0  0  0  0  0  0  0  0  0  0  0
  1  2  1  0
  2  3  1  0
  3  4  2  0
  4  5  1  0
  5  6  1  0
  6  7  2  0
  6  8  2  0
  6  9  1  0
  9 10  2  0
 10 11  1  0
 11 12  1  0
 12 13  2  0
 13 14  1  0
 14 15  1  0
 15 16  2  0
 15 17  1  0
 17 18  2  0
 18 19  1  0
 19 20  2  0
 20 21  1  0
 21 22  2  0
 21 23  1  0
 23 24  2  0
 23 25  1  0
 25 26  1  0
 26 27  1  0
 27 28  1  0
 28 29  1  0
 29 30  2  0
 29 31  1  0
 31 32  1  0
 32 33  2  0
 25 34  1  0
  5 35  1  0
 35 36  2  0
 36  3  1  0
 13  9  1  0
 22 17  1  0
 32 26  1  0
 34 20  1  0
  1 37  1  0
  1 38  1  0
  1 39  1  0
  2 40  1  0
  2 41  1  0
  4 42  1  0
 11 43  1  0
 12 44  1  0
 14 45  1  0
 18 46  1  0
 19 47  1  0
 22 48  1  0
 26 49  1  1
 27 50  1  0
 27 51  1  0
 28 52  1  0
 28 53  1  0
 31 54  1  0
 34 55  1  0
 34 56  1  0
 35 57  1  0
M  END
>  <meeko>  (768) 
{"is_sidechain": [true], "free_energy": -11.51, "intermolecular_energy": 0.0, "internal_energy": -11.51, "cluster_size": 7, "cluster_id": 1, "rank_in_cluster": 1}

>  <_RMSD_MCS_to_ref>  (768) 
0.9133825412534803

$$$$
ligand
     RDKit          3D

 54 58  0  0  0  0  0  0  0  0999 V2000
   24.8540    9.4020    7.6050 C   0  0  0  0  0  0  0  0  0  0  0  0
   25.5230   10.7550    7.4270 C   0  0  0  0  0  0  0  0  0  0  0  0
   24.9650   11.5110    6.2730 C   0  0  0  0  0  0  0  0  0  0  0  0
   25.2470   12.7980    5.8590 C   0  0  0  0  0  0  0  0  0  0  0  0
   24.4380   12.9860    4.7740 N   0  0  0  0  0  0  0  0  0  0  0  0
   24.4820   14.2970    3.7250 S   0  0  0  0  0  6  0  0  0  0  0  0
   25.2210   13.8280    2.5700 O   0  0  0  0  0  0  0  0  0  0  0  0
   23.1090   14.7600    3.6510 O   0  0  0  0  0  0  0  0  0  0  0  0
   25.4420   15.5750    4.4970 C   0  0  0  0  0  0  0  0  0  0  0  0
   26.3710   16.3380    3.7680 C   0  0  0  0  0  0  0  0  0  0  0  0
   27.1160   17.3400    4.3860 C   0  0  0  0  0  0  0  0  0  0  0  0
   26.9530   17.6050    5.7450 C   0  0  0  0  0  0  0  0  0  0  0  0
   26.0310   16.8570    6.5030 C   0  0  0  0  0  0  0  0  0  0  0  0
   25.7850   17.0310    7.8540 N   0  0  0  0  0  0  0  0  0  0  0  0
   24.8710   16.1770    8.2580 C   0  0  0  0  0  0  0  0  0  0  0  0
   24.4130   16.1310    9.6200 C   0  0  0  0  0  0  0  0  0  0  0  0
   23.2180   15.6200   10.1010 C   0  0  0  0  0  0  0  0  0  0  0  0
   23.2160   15.7930   11.5050 C   0  0  0  0  0  0  0  0  0  0  0  0
   24.4100   16.4030   11.8270 C   0  0  0  0  0  0  0  0  0  0  0  0
   24.9520   16.8200   13.1020 C   0  0  0  0  0  0  0  0  0  0  0  0
   25.4430   16.0470   13.9210 O   0  0  0  0  0  0  0  0  0  0  0  0
   24.8650   18.1740   13.3380 N   0  0  0  0  0  0  0  0  0  0  0  0
   25.2110   18.7620   14.6190 C   0  0  1  0  0  0  0  0  0  0  0  0
   26.3760   18.0370   15.2860 C   0  0  0  0  0  0  0  0  0  0  0  0
   26.7070   18.7140   16.6070 C   0  0  0  0  0  0  0  0  0  0  0  0
   26.9980   20.1840   16.4110 C   0  0  0  0  0  0  0  0  0  0  0  0
   27.8070   20.7920   17.1060 O   0  0  0  0  0  0  0  0  0  0  0  0
   26.2840   20.8270   15.4320 N   0  0  0  0  0  0  0  0  0  0  0  0
   25.5920   20.2290   14.4070 C   0  0  0  0  0  0  0  0  0  0  0  0
   25.2910   20.8600   13.3950 O   0  0  0  0  0  0  0  0  0  0  0  0
   25.1380   16.6110   10.6850 O   0  0  0  0  0  0  0  0  0  0  0  0
   24.2580   15.1270    7.0560 S   0  0  0  0  0  0  0  0  0  0  0  0
   25.2880   15.8530    5.8730 C   0  0  0  0  0  0  0  0  0  0  0  0
   23.7320   11.8480    4.5410 C   0  0  0  0  0  0  0  0  0  0  0  0
   24.0370   10.9270    5.4320 N   0  0  0  0  0  0  0  0  0  0  0  0
   24.7464    9.1845    8.6779 H   0  0  0  0  0  0  0  0  0  0  0  0
   23.8606    9.4192    7.1330 H   0  0  0  0  0  0  0  0  0  0  0  0
   25.4708    8.6230    7.1330 H   0  0  0  0  0  0  0  0  0  0  0  0
   25.3752   11.3464    8.3426 H   0  0  0  0  0  0  0  0  0  0  0  0
   26.5912   10.5802    7.2312 H   0  0  0  0  0  0  0  0  0  0  0  0
   25.9600   13.5092    6.3016 H   0  0  0  0  0  0  0  0  0  0  0  0
   26.5116   16.1411    2.6949 H   0  0  0  0  0  0  0  0  0  0  0  0
   27.8376   17.9259    3.7978 H   0  0  0  0  0  0  0  0  0  0  0  0
   27.5445   18.3983    6.2254 H   0  0  0  0  0  0  0  0  0  0  0  0
   22.4173   15.1633    9.5007 H   0  0  0  0  0  0  0  0  0  0  0  0
   22.4184   15.4986   12.2030 H   0  0  0  0  0  0  0  0  0  0  0  0
   24.5431   18.7911   12.5787 H   0  0  0  0  0  0  0  0  0  0  0  0
   24.3357   18.6736   15.2793 H   0  0  0  0  0  0  0  0  0  0  0  0
   26.0977   16.9890   15.4710 H   0  0  0  0  0  0  0  0  0  0  0  0
   27.2553   18.0726   14.6261 H   0  0  0  0  0  0  0  0  0  0  0  0
   25.8514   18.6057   17.2898 H   0  0  0  0  0  0  0  0  0  0  0  0
   27.6031   18.2351   17.0284 H   0  0  0  0  0  0  0  0  0  0  0  0
   26.2649   21.8562   15.4690 H   0  0  0  0  0  0  0  0  0  0  0  0
   23.0080   11.7150    3.7236 H   0  0  0  0  0  0  0  0  0  0  0  0
  1  2  1  0
  2  3  1  0
  3  4  2  0
  4  5  1  0
  5  6  1  0
  6  7  2  0
  6  8  2  0
  6  9  1  0
  9 10  2  0
 10 11  1  0
 11 12  2  0
 12 13  1  0
 13 14  1  0
 14 15  2  0
 15 16  1  0
 16 17  2  0
 17 18  1  0
 18 19  2  0
 19 20  1  0
 20 21  2  0
 20 22  1  0
 22 23  1  0
 23 24  1  0
 24 25  1  0
 25 26  1  0
 26 27  2  0
 26 28  1  0
 28 29  1  0
 29 30  2  0
 19 31  1  0
 15 32  1  0
 32 33  1  0
  5 34  1  0
 34 35  2  0
 35  3  1  0
 33  9  1  0
 33 13  2  0
 31 16  1  0
 29 23  1  0
  1 36  1  0
  1 37  1  0
  1 38  1  0
  2 39  1  0
  2 40  1  0
  4 41  1  0
 10 42  1  0
 11 43  1  0
 12 44  1  0
 17 45  1  0
 18 46  1  0
 22 47  1  0
 23 48  1  1
 24 49  1  0
 24 50  1  0
 25 51  1  0
 25 52  1  0
 28 53  1  0
 34 54  1  0
M  END
>  <meeko>  (769) 
{"is_sidechain": [true], "free_energy": -11.51, "intermolecular_energy": 0.0, "internal_energy": -11.51, "cluster_size": 6, "cluster_id": 2, "rank_in_cluster": 1}

>  <_RMSD_MCS_to_ref>  (769) 
0.5453767301396142

$$$$
ligand
     RDKit          3D

 59 63  0  0  0  0  0  0  0  0999 V2000
   24.8710    9.6160    7.7820 C   0  0  0  0  0  0  0  0  0  0  0  0
   25.4240   10.9650    7.3490 C   0  0  0  0  0  0  0  0  0  0  0  0
   26.6020   11.3760    8.1600 C   0  0  0  0  0  0  0  0  0  0  0  0
   27.8950   11.6310    7.7470 C   0  0  0  0  0  0  0  0  0  0  0  0
   28.5550   11.9570    8.8980 N   0  0  0  0  0  0  0  0  0  0  0  0
   30.1150   12.5750    8.9870 S   0  0  0  0  0  6  0  0  0  0  0  0
   30.1410   13.4370   10.1520 O   0  0  0  0  0  0  0  0  0  0  0  0
   30.9900   11.4220    8.8630 O   0  0  0  0  0  0  0  0  0  0  0  0
   30.2480   13.5660    7.5410 C   0  0  0  0  0  0  0  0  0  0  0  0
   31.4410   13.5020    6.8070 C   0  0  0  0  0  0  0  0  0  0  0  0
   31.6020   14.3200    5.6980 C   0  0  0  0  0  0  0  0  0  0  0  0
   30.5630   15.1670    5.3720 C   0  0  0  0  0  0  0  0  0  0  0  0
   29.4050   15.2260    6.0640 N   0  0  0  0  0  0  0  0  0  0  0  0
   29.2280   14.4230    7.1340 C   0  0  0  0  0  0  0  0  0  0  0  0
   27.9870   14.4670    7.8040 N   0  0  0  0  0  0  0  0  0  0  0  0
   27.0670   15.4920    7.7270 C   0  0  0  0  0  0  0  0  0  0  0  0
   27.1800   16.5500    7.1220 O   0  0  0  0  0  0  0  0  0  0  0  0
   25.7900   15.2520    8.4590 C   0  0  0  0  0  0  0  0  0  0  0  0
   24.7140   14.5440    7.8890 C   0  0  0  0  0  0  0  0  0  0  0  0
   23.5160   14.3490    8.6020 C   0  0  0  0  0  0  0  0  0  0  0  0
   23.3710   14.8480    9.8960 C   0  0  0  0  0  0  0  0  0  0  0  0
   24.4480   15.5190   10.4430 C   0  0  0  0  0  0  0  0  0  0  0  0
   25.6440   15.7210    9.7580 C   0  0  0  0  0  0  0  0  0  0  0  0
   26.5920   16.4940   10.6140 C   0  0  0  0  0  0  0  0  0  0  0  0
   25.8500   16.6410   11.8610 N   0  0  0  0  0  0  0  0  0  0  0  0
   26.3170   17.5370   12.9140 C   0  0  2  0  0  0  0  0  0  0  0  0
   25.6120   17.3290   14.2540 C   0  0  0  0  0  0  0  0  0  0  0  0
   26.2140   18.2650   15.2890 C   0  0  0  0  0  0  0  0  0  0  0  0
   26.1280   19.7060   14.8420 C   0  0  0  0  0  0  0  0  0  0  0  0
   26.1330   20.6400   15.6390 O   0  0  0  0  0  0  0  0  0  0  0  0
   26.1240   19.9320   13.4890 N   0  0  0  0  0  0  0  0  0  0  0  0
   26.2150   19.0050   12.4730 C   0  0  0  0  0  0  0  0  0  0  0  0
   26.3050   19.3750   11.3040 O   0  0  0  0  0  0  0  0  0  0  0  0
   24.5600   16.1490   11.7620 C   0  0  0  0  0  0  0  0  0  0  0  0
   23.6560   16.2200   12.5720 O   0  0  0  0  0  0  0  0  0  0  0  0
   27.6810   11.9350    9.9350 C   0  0  0  0  0  0  0  0  0  0  0  0
   26.4830   11.5750    9.5210 N   0  0  0  0  0  0  0  0  0  0  0  0
   24.8497    9.5640    8.8806 H   0  0  0  0  0  0  0  0  0  0  0  0
   23.8507    9.4948    7.3893 H   0  0  0  0  0  0  0  0  0  0  0  0
   25.5127    8.8135    7.3893 H   0  0  0  0  0  0  0  0  0  0  0  0
   25.7255   10.9019    6.2930 H   0  0  0  0  0  0  0  0  0  0  0  0
   24.6343   11.7166    7.4955 H   0  0  0  0  0  0  0  0  0  0  0  0
   28.3005   11.5827    6.7256 H   0  0  0  0  0  0  0  0  0  0  0  0
   32.2415   12.8100    7.1075 H   0  0  0  0  0  0  0  0  0  0  0  0
   32.5250   14.2941    5.1001 H   0  0  0  0  0  0  0  0  0  0  0  0
   30.6843   15.8294    4.5022 H   0  0  0  0  0  0  0  0  0  0  0  0
   27.7472   13.6639    8.4027 H   0  0  0  0  0  0  0  0  0  0  0  0
   24.8113   14.1374    6.8715 H   0  0  0  0  0  0  0  0  0  0  0  0
   22.6868   13.7980    8.1342 H   0  0  0  0  0  0  0  0  0  0  0  0
   22.4359   14.7128   10.4593 H   0  0  0  0  0  0  0  0  0  0  0  0
   27.5276   15.9376   10.7722 H   0  0  0  0  0  0  0  0  0  0  0  0
   26.8969   17.4538   10.1714 H   0  0  0  0  0  0  0  0  0  0  0  0
   27.3740   17.2807   13.0784 H   0  0  0  0  0  0  0  0  0  0  0  0
   24.5394   17.5457   14.1424 H   0  0  0  0  0  0  0  0  0  0  0  0
   25.7413   16.2866   14.5805 H   0  0  0  0  0  0  0  0  0  0  0  0
   25.6673   18.1505   16.2367 H   0  0  0  0  0  0  0  0  0  0  0  0
   27.2748   18.0041   15.4178 H   0  0  0  0  0  0  0  0  0  0  0  0
   26.0430   20.9161   13.1961 H   0  0  0  0  0  0  0  0  0  0  0  0
   27.9365   12.1830   10.9758 H   0  0  0  0  0  0  0  0  0  0  0  0
  1  2  1  0
  2  3  1  0
  3  4  2  0
  4  5  1  0
  5  6  1  0
  6  7  2  0
  6  8  2  0
  6  9  1  0
  9 10  2  0
 10 11  1  0
 11 12  2  0
 12 13  1  0
 13 14  2  0
 14 15  1  0
 15 16  1  0
 16 17  2  0
 16 18  1  0
 18 19  2  0
 19 20  1  0
 20 21  2  0
 21 22  1  0
 22 23  2  0
 23 24  1  0
 24 25  1  0
 25 26  1  0
 26 27  1  0
 27 28  1  0
 28 29  1  0
 29 30  2  0
 29 31  1  0
 31 32  1  0
 32 33  2  0
 25 34  1  0
 34 35  2  0
  5 36  1  0
 36 37  2  0
 37  3  1  0
 14  9  1  0
 23 18  1  0
 32 26  1  0
 34 22  1  0
  1 38  1  0
  1 39  1  0
  1 40  1  0
  2 41  1  0
  2 42  1  0
  4 43  1  0
 10 44  1  0
 11 45  1  0
 12 46  1  0
 15 47  1  0
 19 48  1  0
 20 49  1  0
 21 50  1  0
 24 51  1  0
 24 52  1  0
 26 53  1  1
 27 54  1  0
 27 55  1  0
 28 56  1  0
 28 57  1  0
 31 58  1  0
 36 59  1  0
M  END
>  <meeko>  (770) 
{"is_sidechain": [true], "free_energy": -11.51, "intermolecular_energy": 0.0, "internal_energy": -11.51, "cluster_size": 6, "cluster_id": 2, "rank_in_cluster": 1}

>  <_RMSD_MCS_to_ref>  (770) 
1.822571595911179

$$$$
ligand
     RDKit          3D

 48 51  0  0  0  0  0  0  0  0999 V2000
   24.8710    9.6160    7.7820 C   0  0  0  0  0  0  0  0  0  0  0  0
   25.4240   10.9650    7.3490 C   0  0  0  0  0  0  0  0  0  0  0  0
   26.5320   11.4270    8.2280 C   0  0  0  0  0  0  0  0  0  0  0  0
   27.5720   12.2880    7.9370 C   0  0  0  0  0  0  0  0  0  0  0  0
   28.3060   12.3280    9.0880 N   0  0  0  0  0  0  0  0  0  0  0  0
   29.5660   13.3980    9.4150 S   0  0  0  0  0  6  0  0  0  0  0  0
   30.5290   13.1760    8.3530 O   0  0  0  0  0  0  0  0  0  0  0  0
   29.9040   13.1630   10.8070 O   0  0  0  0  0  0  0  0  0  0  0  0
   28.9410   14.8940    9.2650 O   0  0  0  0  0  0  0  0  0  0  0  0
   27.5910   15.1270    9.2800 C   0  0  0  0  0  0  0  0  0  0  0  0
   26.7090   14.9320    8.2170 C   0  0  0  0  0  0  0  0  0  0  0  0
   25.3700   15.1660    8.2440 N   0  0  0  0  0  0  0  0  0  0  0  0
   24.9460   15.6220    9.4350 C   0  0  0  0  0  0  0  0  0  0  0  0
   23.6630   15.9430    9.7640 N   0  0  0  0  0  0  0  0  0  0  0  0
   23.5150   16.3800   11.0320 N   0  0  0  0  0  0  0  0  0  0  0  0
   24.7700   16.3310   11.5360 C   0  0  0  0  0  0  0  0  0  0  0  0
   25.0540   16.7260   12.9230 C   0  0  0  0  0  0  0  0  0  0  0  0
   25.1760   15.9210   13.8420 O   0  0  0  0  0  0  0  0  0  0  0  0
   25.1600   18.0860   13.0970 N   0  0  0  0  0  0  0  0  0  0  0  0
   25.2740   18.7030   14.4040 C   0  0  1  0  0  0  0  0  0  0  0  0
   26.3100   18.0030   15.2770 C   0  0  0  0  0  0  0  0  0  0  0  0
   26.3980   18.7030   16.6240 C   0  0  0  0  0  0  0  0  0  0  0  0
   26.7070   20.1720   16.4580 C   0  0  0  0  0  0  0  0  0  0  0  0
   27.3730   20.8000   17.2760 O   0  0  0  0  0  0  0  0  0  0  0  0
   26.1730   20.7920   15.3570 N   0  0  0  0  0  0  0  0  0  0  0  0
   25.6710   20.1740   14.2380 C   0  0  0  0  0  0  0  0  0  0  0  0
   25.5350   20.7930   13.1840 O   0  0  0  0  0  0  0  0  0  0  0  0
   25.7030   15.8610   10.5680 C   0  0  0  0  0  0  0  0  0  0  0  0
   27.0810   15.6040   10.4920 C   0  0  0  0  0  0  0  0  0  0  0  0
   27.6800   11.5900   10.0410 C   0  0  0  0  0  0  0  0  0  0  0  0
   26.6100   11.0070    9.5420 N   0  0  0  0  0  0  0  0  0  0  0  0
   24.8497    9.5640    8.8806 H   0  0  0  0  0  0  0  0  0  0  0  0
   23.8507    9.4948    7.3893 H   0  0  0  0  0  0  0  0  0  0  0  0
   25.5127    8.8135    7.3893 H   0  0  0  0  0  0  0  0  0  0  0  0
   25.8011   10.8792    6.3192 H   0  0  0  0  0  0  0  0  0  0  0  0
   24.6096   11.7013    7.4172 H   0  0  0  0  0  0  0  0  0  0  0  0
   27.7650   12.8200    6.9937 H   0  0  0  0  0  0  0  0  0  0  0  0
   27.1340   14.5561    7.2746 H   0  0  0  0  0  0  0  0  0  0  0  0
   22.8768   15.8595    9.1039 H   0  0  0  0  0  0  0  0  0  0  0  0
   25.1583   18.6917   12.2639 H   0  0  0  0  0  0  0  0  0  0  0  0
   24.2965   18.6175   14.9012 H   0  0  0  0  0  0  0  0  0  0  0  0
   26.0134   16.9545   15.4279 H   0  0  0  0  0  0  0  0  0  0  0  0
   27.2911   18.0402   14.7810 H   0  0  0  0  0  0  0  0  0  0  0  0
   25.4365   18.5957   17.1474 H   0  0  0  0  0  0  0  0  0  0  0  0
   27.2098   18.2401   17.2043 H   0  0  0  0  0  0  0  0  0  0  0  0
   26.1459   21.8215   15.3709 H   0  0  0  0  0  0  0  0  0  0  0  0
   27.7385   15.7723   11.3577 H   0  0  0  0  0  0  0  0  0  0  0  0
   28.0191   11.4930   11.0829 H   0  0  0  0  0  0  0  0  0  0  0  0
  1  2  1  0
  2  3  1  0
  3  4  2  0
  4  5  1  0
  5  6  1  0
  6  7  2  0
  6  8  2  0
  6  9  1  0
  9 10  1  0
 10 11  2  0
 11 12  1  0
 12 13  2  0
 13 14  1  0
 14 15  1  0
 15 16  2  0
 16 17  1  0
 17 18  2  0
 17 19  1  0
 19 20  1  0
 20 21  1  0
 21 22  1  0
 22 23  1  0
 23 24  2  0
 23 25  1  0
 25 26  1  0
 26 27  2  0
 16 28  1  0
 28 29  2  0
  5 30  1  0
 30 31  2  0
 31  3  1  0
 29 10  1  0
 28 13  1  0
 26 20  1  0
  1 32  1  0
  1 33  1  0
  1 34  1  0
  2 35  1  0
  2 36  1  0
  4 37  1  0
 11 38  1  0
 14 39  1  0
 19 40  1  0
 20 41  1  1
 21 42  1  0
 21 43  1  0
 22 44  1  0
 22 45  1  0
 25 46  1  0
 29 47  1  0
 30 48  1  0
M  END
>  <meeko>  (771) 
{"is_sidechain": [true], "free_energy": -11.51, "intermolecular_energy": 0.0, "internal_energy": -11.51, "cluster_size": 11, "cluster_id": 1, "rank_in_cluster": 1}

>  <_RMSD_MCS_to_ref>  (771) 
0.7492343499273849

$$$$
ligand
     RDKit          3D

 57 61  0  0  0  0  0  0  0  0999 V2000
   24.8540    9.4020    7.6050 C   0  0  0  0  0  0  0  0  0  0  0  0
   25.5230   10.7550    7.4270 C   0  0  0  0  0  0  0  0  0  0  0  0
   25.2040   11.3720    6.1110 C   0  0  0  0  0  0  0  0  0  0  0  0
   24.7070   12.6330    5.8420 C   0  0  0  0  0  0  0  0  0  0  0  0
   24.5980   12.6670    4.4830 N   0  0  0  0  0  0  0  0  0  0  0  0
   24.1270   13.9840    3.5550 S   0  0  0  0  0  6  0  0  0  0  0  0
   22.7660   14.2820    3.9620 O   0  0  0  0  0  0  0  0  0  0  0  0
   24.4660   13.6400    2.1860 O   0  0  0  0  0  0  0  0  0  0  0  0
   25.1600   15.3340    4.0540 C   0  0  0  0  0  0  0  0  0  0  0  0
   25.8930   16.0040    3.0950 C   0  0  0  0  0  0  0  0  0  0  0  0
   26.6620   17.0720    3.5280 C   0  0  0  0  0  0  0  0  0  0  0  0
   26.6660   17.4360    4.8840 C   0  0  0  0  0  0  0  0  0  0  0  0
   27.4290   18.5350    5.3060 C   0  0  0  0  0  0  0  0  0  0  0  0
   27.4320   18.9220    6.6380 C   0  0  0  0  0  0  0  0  0  0  0  0
   26.6730   18.2060    7.5570 C   0  0  0  0  0  0  0  0  0  0  0  0
   25.9070   17.0930    7.1560 C   0  0  0  0  0  0  0  0  0  0  0  0
   25.1440   16.3790    8.1790 C   0  0  0  0  0  0  0  0  0  0  0  0
   24.3700   15.2370    8.1950 C   0  0  0  0  0  0  0  0  0  0  0  0
   23.8900   15.0850    9.5180 C   0  0  0  0  0  0  0  0  0  0  0  0
   24.3980   16.1400   10.2470 C   0  0  0  0  0  0  0  0  0  0  0  0
   24.2350   16.5040   11.6370 C   0  0  0  0  0  0  0  0  0  0  0  0
   23.3910   16.0110   12.3810 O   0  0  0  0  0  0  0  0  0  0  0  0
   25.1090   17.4770   12.0710 N   0  0  0  0  0  0  0  0  0  0  0  0
   24.9900   18.1000   13.3760 C   0  0  1  0  0  0  0  0  0  0  0  0
   25.6460   17.2690   14.4740 C   0  0  0  0  0  0  0  0  0  0  0  0
   25.5130   17.9900   15.8060 C   0  0  0  0  0  0  0  0  0  0  0  0
   26.0910   19.3840   15.7330 C   0  0  0  0  0  0  0  0  0  0  0  0
   26.6480   19.9170   16.6880 O   0  0  0  0  0  0  0  0  0  0  0  0
   25.9400   20.0520   14.5450 N   0  0  0  0  0  0  0  0  0  0  0  0
   25.6600   19.4770   13.3290 C   0  0  0  0  0  0  0  0  0  0  0  0
   25.9250   20.0590   12.2780 O   0  0  0  0  0  0  0  0  0  0  0  0
   25.1720   16.9260    9.4330 O   0  0  0  0  0  0  0  0  0  0  0  0
   25.8890   16.6860    5.8060 C   0  0  0  0  0  0  0  0  0  0  0  0
   25.1470   15.6340    5.3760 N   0  0  0  0  0  0  0  0  0  0  0  0
   25.0390   11.4890    3.9700 C   0  0  0  0  0  0  0  0  0  0  0  0
   25.4090   10.6730    4.9360 N   0  0  0  0  0  0  0  0  0  0  0  0
   24.7464    9.1845    8.6779 H   0  0  0  0  0  0  0  0  0  0  0  0
   23.8606    9.4192    7.1330 H   0  0  0  0  0  0  0  0  0  0  0  0
   25.4708    8.6230    7.1330 H   0  0  0  0  0  0  0  0  0  0  0  0
   25.1790   11.4280    8.2263 H   0  0  0  0  0  0  0  0  0  0  0  0
   26.6113   10.6018    7.4727 H   0  0  0  0  0  0  0  0  0  0  0  0
   24.4565   13.4278    6.5600 H   0  0  0  0  0  0  0  0  0  0  0  0
   25.8677   15.7040    2.0370 H   0  0  0  0  0  0  0  0  0  0  0  0
   27.2714   17.6366    2.8070 H   0  0  0  0  0  0  0  0  0  0  0  0
   28.0301   19.0947    4.5742 H   0  0  0  0  0  0  0  0  0  0  0  0
   28.0288   19.7866    6.9640 H   0  0  0  0  0  0  0  0  0  0  0  0
   26.6704   18.5130    8.6133 H   0  0  0  0  0  0  0  0  0  0  0  0
   24.1652   14.5721    7.3430 H   0  0  0  0  0  0  0  0  0  0  0  0
   23.2384   14.2816    9.8921 H   0  0  0  0  0  0  0  0  0  0  0  0
   25.8735   17.7724   11.4472 H   0  0  0  0  0  0  0  0  0  0  0  0
   23.9192   18.1850   13.6131 H   0  0  0  0  0  0  0  0  0  0  0  0
   25.1507   16.2888   14.5370 H   0  0  0  0  0  0  0  0  0  0  0  0
   26.7113   17.1281   14.2391 H   0  0  0  0  0  0  0  0  0  0  0  0
   24.4480   18.0567   16.0731 H   0  0  0  0  0  0  0  0  0  0  0  0
   26.0688   17.4219   16.5665 H   0  0  0  0  0  0  0  0  0  0  0  0
   26.0460   21.0763   14.5662 H   0  0  0  0  0  0  0  0  0  0  0  0
   25.0813   11.2496    2.8972 H   0  0  0  0  0  0  0  0  0  0  0  0
  1  2  1  0
  2  3  1  0
  3  4  2  0
  4  5  1  0
  5  6  1  0
  6  7  2  0
  6  8  2  0
  6  9  1  0
  9 10  2  0
 10 11  1  0
 11 12  2  0
 12 13  1  0
 13 14  2  0
 14 15  1  0
 15 16  2  0
 16 17  1  0
 17 18  2  0
 18 19  1  0
 19 20  2  0
 20 21  1  0
 21 22  2  0
 21 23  1  0
 23 24  1  0
 24 25  1  0
 25 26  1  0
 26 27  1  0
 27 28  2  0
 27 29  1  0
 29 30  1  0
 30 31  2  0
 20 32  1  0
 16 33  1  0
 33 34  2  0
  5 35  1  0
 35 36  2  0
 36  3  1  0
 34  9  1  0
 33 12  1  0
 32 17  1  0
 30 24  1  0
  1 37  1  0
  1 38  1  0
  1 39  1  0
  2 40  1  0
  2 41  1  0
  4 42  1  0
 10 43  1  0
 11 44  1  0
 13 45  1  0
 14 46  1  0
 15 47  1  0
 18 48  1  0
 19 49  1  0
 23 50  1  0
 24 51  1  1
 25 52  1  0
 25 53  1  0
 26 54  1  0
 26 55  1  0
 29 56  1  0
 35 57  1  0
M  END
>  <meeko>  (772) 
{"is_sidechain": [true], "free_energy": -11.5, "intermolecular_energy": 0.0, "internal_energy": -11.5, "cluster_size": 13, "cluster_id": 1, "rank_in_cluster": 1}

>  <_RMSD_MCS_to_ref>  (772) 
1.3737497750480046

$$$$
ligand
     RDKit          3D

 58 63  0  0  0  0  0  0  0  0999 V2000
   24.8540    9.4020    7.6050 C   0  0  0  0  0  0  0  0  0  0  0  0
   25.5230   10.7550    7.4270 C   0  0  0  0  0  0  0  0  0  0  0  0
   26.9810   10.6420    7.1420 C   0  0  0  0  0  0  0  0  0  0  0  0
   28.0420   11.1470    7.8700 C   0  0  0  0  0  0  0  0  0  0  0  0
   29.1450   10.7000    7.2040 N   0  0  0  0  0  0  0  0  0  0  0  0
   30.7340   11.1120    7.5320 S   0  0  0  0  0  6  0  0  0  0  0  0
   31.2110   10.1650    8.5230 O   0  0  0  0  0  0  0  0  0  0  0  0
   31.3740   11.2630    6.2360 O   0  0  0  0  0  0  0  0  0  0  0  0
   30.7750   12.7210    8.2970 C   0  0  0  0  0  0  0  0  0  0  0  0
   32.1310   13.2620    8.6380 C   0  0  0  0  0  0  0  0  0  0  0  0
   32.1420   14.4830    9.1880 C   0  0  0  0  0  0  0  0  0  0  0  0
   30.9530   15.1630    9.4220 N   0  0  0  0  0  0  0  0  0  0  0  0
   30.8090   16.3880    9.9740 N   0  0  0  0  0  0  0  0  0  0  0  0
   29.4910   16.5760   10.0200 C   0  0  0  0  0  0  0  0  0  0  0  0
   28.7570   15.4960    9.4840 C   0  0  0  0  0  0  0  0  0  0  0  0
   27.3190   15.3270    9.4130 C   0  0  0  0  0  0  0  0  0  0  0  0
   26.7780   14.4850    8.4190 C   0  0  0  0  0  0  0  0  0  0  0  0
   25.3970   14.2250    8.3440 C   0  0  0  0  0  0  0  0  0  0  0  0
   24.5230   14.7910    9.2690 C   0  0  0  0  0  0  0  0  0  0  0  0
   25.0720   15.6140   10.2340 C   0  0  0  0  0  0  0  0  0  0  0  0
   26.4370   15.9000   10.3180 C   0  0  0  0  0  0  0  0  0  0  0  0
   26.6770   16.7960   11.4870 C   0  0  0  0  0  0  0  0  0  0  0  0
   25.3330   17.0680   11.9760 N   0  0  0  0  0  0  0  0  0  0  0  0
   25.1170   17.8400   13.1950 C   0  0  1  0  0  0  0  0  0  0  0  0
   25.5640   17.1270   14.4700 C   0  0  0  0  0  0  0  0  0  0  0  0
   25.2030   17.9840   15.6730 C   0  0  0  0  0  0  0  0  0  0  0  0
   25.8260   19.3560   15.5680 C   0  0  0  0  0  0  0  0  0  0  0  0
   26.0300   20.0610   16.5530 O   0  0  0  0  0  0  0  0  0  0  0  0
   26.0850   19.8220   14.3030 N   0  0  0  0  0  0  0  0  0  0  0  0
   25.7790   19.2220   13.1020 C   0  0  0  0  0  0  0  0  0  0  0  0
   25.9390   19.8320   12.0460 O   0  0  0  0  0  0  0  0  0  0  0  0
   24.3800   16.3110   11.3240 C   0  0  0  0  0  0  0  0  0  0  0  0
   23.1930   16.2070   11.5640 O   0  0  0  0  0  0  0  0  0  0  0  0
   29.7190   14.5830    9.0880 C   0  0  0  0  0  0  0  0  0  0  0  0
   29.6420   13.3380    8.5090 N   0  0  0  0  0  0  0  0  0  0  0  0
   28.7540   10.0100    6.1030 C   0  0  0  0  0  0  0  0  0  0  0  0
   27.4400    9.9520    6.0330 N   0  0  0  0  0  0  0  0  0  0  0  0
   24.7464    9.1845    8.6779 H   0  0  0  0  0  0  0  0  0  0  0  0
   23.8606    9.4192    7.1330 H   0  0  0  0  0  0  0  0  0  0  0  0
   25.4708    8.6230    7.1330 H   0  0  0  0  0  0  0  0  0  0  0  0
   25.0401   11.2789    6.5889 H   0  0  0  0  0  0  0  0  0  0  0  0
   25.4107   11.3081    8.3712 H   0  0  0  0  0  0  0  0  0  0  0  0
   28.0051   11.7670    8.7779 H   0  0  0  0  0  0  0  0  0  0  0  0
   33.0542   12.6945    8.4492 H   0  0  0  0  0  0  0  0  0  0  0  0
   33.1003   14.9515    9.4568 H   0  0  0  0  0  0  0  0  0  0  0  0
   29.0222   17.4810   10.4337 H   0  0  0  0  0  0  0  0  0  0  0  0
   27.4521   14.0202    7.6845 H   0  0  0  0  0  0  0  0  0  0  0  0
   25.0057   13.5713    7.5506 H   0  0  0  0  0  0  0  0  0  0  0  0
   23.4418   14.5915    9.2330 H   0  0  0  0  0  0  0  0  0  0  0  0
   27.2816   16.2905   12.2544 H   0  0  0  0  0  0  0  0  0  0  0  0
   27.2348   17.7074   11.2259 H   0  0  0  0  0  0  0  0  0  0  0  0
   24.0262   17.9597   13.2719 H   0  0  0  0  0  0  0  0  0  0  0  0
   25.0561   16.1542   14.5452 H   0  0  0  0  0  0  0  0  0  0  0  0
   26.6519   16.9669   14.4426 H   0  0  0  0  0  0  0  0  0  0  0  0
   24.1092   18.0888   15.7245 H   0  0  0  0  0  0  0  0  0  0  0  0
   25.5868   17.4938   16.5798 H   0  0  0  0  0  0  0  0  0  0  0  0
   26.5666   20.7306   14.2452 H   0  0  0  0  0  0  0  0  0  0  0  0
   29.4400    9.5609    5.3698 H   0  0  0  0  0  0  0  0  0  0  0  0
  1  2  1  0
  2  3  1  0
  3  4  2  0
  4  5  1  0
  5  6  1  0
  6  7  2  0
  6  8  2  0
  6  9  1  0
  9 10  1  0
 10 11  2  0
 11 12  1  0
 12 13  1  0
 13 14  2  0
 14 15  1  0
 15 16  1  0
 16 17  2  0
 17 18  1  0
 18 19  2  0
 19 20  1  0
 20 21  2  0
 21 22  1  0
 22 23  1  0
 23 24  1  0
 24 25  1  0
 25 26  1  0
 26 27  1  0
 27 28  2  0
 27 29  1  0
 29 30  1  0
 30 31  2  0
 23 32  1  0
 32 33  2  0
 15 34  2  0
 34 35  1  0
  5 36  1  0
 36 37  2  0
 37  3  1  0
 35  9  2  0
 34 12  1  0
 21 16  1  0
 30 24  1  0
 32 20  1  0
  1 38  1  0
  1 39  1  0
  1 40  1  0
  2 41  1  0
  2 42  1  0
  4 43  1  0
 10 44  1  0
 11 45  1  0
 14 46  1  0
 17 47  1  0
 18 48  1  0
 19 49  1  0
 22 50  1  0
 22 51  1  0
 24 52  1  1
 25 53  1  0
 25 54  1  0
 26 55  1  0
 26 56  1  0
 29 57  1  0
 36 58  1  0
M  END
>  <meeko>  (773) 
{"is_sidechain": [true], "free_energy": -11.5, "intermolecular_energy": 0.0, "internal_energy": -11.5, "cluster_size": 19, "cluster_id": 1, "rank_in_cluster": 1}

>  <_RMSD_MCS_to_ref>  (773) 
1.654932392039693

$$$$
ligand
     RDKit          3D

 59 63  0  0  0  0  0  0  0  0999 V2000
   24.8540    9.4020    7.6050 C   0  0  0  0  0  0  0  0  0  0  0  0
   25.5230   10.7550    7.4270 C   0  0  0  0  0  0  0  0  0  0  0  0
   25.4280   11.2480    6.0260 C   0  0  0  0  0  0  0  0  0  0  0  0
   24.3510   11.8190    5.3770 C   0  0  0  0  0  0  0  0  0  0  0  0
   24.8130   12.0690    4.1170 N   0  0  0  0  0  0  0  0  0  0  0  0
   24.0290   12.9780    2.9410 S   0  0  0  0  0  6  0  0  0  0  0  0
   24.6800   12.6410    1.6900 O   0  0  0  0  0  0  0  0  0  0  0  0
   22.6090   12.7850    3.1580 O   0  0  0  0  0  0  0  0  0  0  0  0
   24.4300   14.6490    3.3520 C   0  0  0  0  0  0  0  0  0  0  0  0
   24.6730   15.5750    2.3390 C   0  0  0  0  0  0  0  0  0  0  0  0
   24.9710   16.8730    2.7130 C   0  0  0  0  0  0  0  0  0  0  0  0
   25.0370   17.2850    3.9970 N   0  0  0  0  0  0  0  0  0  0  0  0
   24.7800   16.3550    4.9600 C   0  0  0  0  0  0  0  0  0  0  0  0
   24.8570   16.8350    6.3800 C   0  0  0  0  0  0  0  0  0  0  0  0
   25.2710   17.9640    6.6140 O   0  0  0  0  0  0  0  0  0  0  0  0
   24.4250   15.8910    7.2900 N   0  0  0  0  0  0  0  0  0  0  0  0
   24.3530   15.9960    8.6910 C   0  0  0  0  0  0  0  0  0  0  0  0
   23.4160   15.2970    9.4780 C   0  0  0  0  0  0  0  0  0  0  0  0
   23.3850   15.4320   10.8740 C   0  0  0  0  0  0  0  0  0  0  0  0
   24.3000   16.2780   11.4690 C   0  0  0  0  0  0  0  0  0  0  0  0
   25.2200   16.9660   10.6850 C   0  0  0  0  0  0  0  0  0  0  0  0
   25.2760   16.8470    9.3090 C   0  0  0  0  0  0  0  0  0  0  0  0
   26.0590   17.7770   11.5740 C   0  0  0  0  0  0  0  0  0  0  0  0
   27.0120   18.4370   11.2080 O   0  0  0  0  0  0  0  0  0  0  0  0
   25.5590   17.6150   12.8570 N   0  0  0  0  0  0  0  0  0  0  0  0
   26.2350   18.0700   14.0670 C   0  0  2  0  0  0  0  0  0  0  0  0
   25.5190   17.6720   15.3580 C   0  0  0  0  0  0  0  0  0  0  0  0
   26.3360   18.1410   16.5510 C   0  0  0  0  0  0  0  0  0  0  0  0
   26.5800   19.6310   16.4980 C   0  0  0  0  0  0  0  0  0  0  0  0
   26.8290   20.2900   17.5030 O   0  0  0  0  0  0  0  0  0  0  0  0
   26.5960   20.2080   15.2530 N   0  0  0  0  0  0  0  0  0  0  0  0
   26.4790   19.5870   14.0310 C   0  0  0  0  0  0  0  0  0  0  0  0
   26.6700   20.2190   12.9930 O   0  0  0  0  0  0  0  0  0  0  0  0
   24.5170   16.5980   12.9090 C   0  0  0  0  0  0  0  0  0  0  0  0
   24.4670   15.0320    4.6910 C   0  0  0  0  0  0  0  0  0  0  0  0
   26.1170   11.6990    4.0390 C   0  0  0  0  0  0  0  0  0  0  0  0
   26.5210   11.1880    5.1820 N   0  0  0  0  0  0  0  0  0  0  0  0
   24.7464    9.1845    8.6779 H   0  0  0  0  0  0  0  0  0  0  0  0
   23.8606    9.4192    7.1330 H   0  0  0  0  0  0  0  0  0  0  0  0
   25.4708    8.6230    7.1330 H   0  0  0  0  0  0  0  0  0  0  0  0
   25.0347   11.4821    8.0925 H   0  0  0  0  0  0  0  0  0  0  0  0
   26.5889   10.6403    7.6736 H   0  0  0  0  0  0  0  0  0  0  0  0
   23.3496   12.0253    5.7827 H   0  0  0  0  0  0  0  0  0  0  0  0
   24.6293   15.2838    1.2791 H   0  0  0  0  0  0  0  0  0  0  0  0
   25.1650   17.6105    1.9202 H   0  0  0  0  0  0  0  0  0  0  0  0
   24.1152   14.9932    6.8914 H   0  0  0  0  0  0  0  0  0  0  0  0
   22.6923   14.6302    8.9864 H   0  0  0  0  0  0  0  0  0  0  0  0
   22.6513   14.8787   11.4786 H   0  0  0  0  0  0  0  0  0  0  0  0
   26.0207   17.4023    8.7199 H   0  0  0  0  0  0  0  0  0  0  0  0
   27.2042   17.5498   14.0777 H   0  0  0  0  0  0  0  0  0  0  0  0
   24.5246   18.1414   15.3863 H   0  0  0  0  0  0  0  0  0  0  0  0
   25.4072   16.5783   15.3951 H   0  0  0  0  0  0  0  0  0  0  0  0
   25.7909   17.8999   17.4755 H   0  0  0  0  0  0  0  0  0  0  0  0
   27.3093   17.6289   16.5280 H   0  0  0  0  0  0  0  0  0  0  0  0
   26.7095   21.2315   15.2307 H   0  0  0  0  0  0  0  0  0  0  0  0
   24.8551   15.7116   13.4658 H   0  0  0  0  0  0  0  0  0  0  0  0
   23.6048   16.9333   13.4242 H   0  0  0  0  0  0  0  0  0  0  0  0
   24.2570   14.3159    5.4991 H   0  0  0  0  0  0  0  0  0  0  0  0
   26.7478   11.8109    3.1448 H   0  0  0  0  0  0  0  0  0  0  0  0
  1  2  1  0
  2  3  1  0
  3  4  2  0
  4  5  1  0
  5  6  1  0
  6  7  2  0
  6  8  2  0
  6  9  1  0
  9 10  2  0
 10 11  1  0
 11 12  2  0
 12 13  1  0
 13 14  1  0
 14 15  2  0
 14 16  1  0
 16 17  1  0
 17 18  2  0
 18 19  1  0
 19 20  2  0
 20 21  1  0
 21 22  2  0
 21 23  1  0
 23 24  2  0
 23 25  1  0
 25 26  1  0
 26 27  1  0
 27 28  1  0
 28 29  1  0
 29 30  2  0
 29 31  1  0
 31 32  1  0
 32 33  2  0
 25 34  1  0
 13 35  2  0
  5 36  1  0
 36 37  2  0
 37  3  1  0
 35  9  1  0
 22 17  1  0
 32 26  1  0
 34 20  1  0
  1 38  1  0
  1 39  1  0
  1 40  1  0
  2 41  1  0
  2 42  1  0
  4 43  1  0
 10 44  1  0
 11 45  1  0
 16 46  1  0
 18 47  1  0
 19 48  1  0
 22 49  1  0
 26 50  1  1
 27 51  1  0
 27 52  1  0
 28 53  1  0
 28 54  1  0
 31 55  1  0
 34 56  1  0
 34 57  1  0
 35 58  1  0
 36 59  1  0
M  END
>  <meeko>  (774) 
{"is_sidechain": [true], "free_energy": -11.5, "intermolecular_energy": 0.0, "internal_energy": -11.5, "cluster_size": 6, "cluster_id": 1, "rank_in_cluster": 1}

>  <_RMSD_MCS_to_ref>  (774) 
1.1869122756126498

$$$$
ligand
     RDKit          3D

 50 53  0  0  0  0  0  0  0  0999 V2000
   24.8540    9.4020    7.6050 C   0  0  0  0  0  0  0  0  0  0  0  0
   25.5230   10.7550    7.4270 C   0  0  0  0  0  0  0  0  0  0  0  0
   27.0050   10.6770    7.5370 C   0  0  0  0  0  0  0  0  0  0  0  0
   27.9310   11.6990    7.4570 C   0  0  0  0  0  0  0  0  0  0  0  0
   29.1350   11.0800    7.6340 N   0  0  0  0  0  0  0  0  0  0  0  0
   30.6520   11.7950    7.4710 S   0  0  0  0  0  6  0  0  0  0  0  0
   30.8190   12.0500    6.0530 O   0  0  0  0  0  0  0  0  0  0  0  0
   31.5640   10.9450    8.2180 O   0  0  0  0  0  0  0  0  0  0  0  0
   30.5130   13.3440    8.3140 C   0  0  0  0  0  0  0  0  0  0  0  0
   31.6240   14.1160    8.5910 C   0  0  0  0  0  0  0  0  0  0  0  0
   31.4070   15.3110    9.2700 C   0  0  0  0  0  0  0  0  0  0  0  0
   30.1070   15.6750    9.6450 C   0  0  0  0  0  0  0  0  0  0  0  0
   29.0490   14.8290    9.3240 C   0  0  0  0  0  0  0  0  0  0  0  0
   27.6280   15.0600    9.6550 C   0  0  0  0  0  0  0  0  0  0  0  0
   27.2370   15.7530   10.7100 N   0  0  0  0  0  0  0  0  0  0  0  0
   25.8490   15.8290   10.7760 C   0  0  0  0  0  0  0  0  0  0  0  0
   25.1890   16.5640   11.8590 C   0  0  0  0  0  0  0  0  0  0  0  0
   24.0020   16.8670   11.8380 O   0  0  0  0  0  0  0  0  0  0  0  0
   26.0460   16.8690   12.8960 N   0  0  0  0  0  0  0  0  0  0  0  0
   25.6830   17.8480   13.9030 C   0  0  1  0  0  0  0  0  0  0  0  0
   26.2950   17.4900   15.2510 C   0  0  0  0  0  0  0  0  0  0  0  0
   25.9120   18.5380   16.2830 C   0  0  0  0  0  0  0  0  0  0  0  0
   26.3220   19.9210   15.8360 C   0  0  0  0  0  0  0  0  0  0  0  0
   26.6520   20.7980   16.6280 O   0  0  0  0  0  0  0  0  0  0  0  0
   26.2650   20.1730   14.4890 N   0  0  0  0  0  0  0  0  0  0  0  0
   26.1560   19.2470   13.4770 C   0  0  0  0  0  0  0  0  0  0  0  0
   26.3940   19.5730   12.3150 O   0  0  0  0  0  0  0  0  0  0  0  0
   25.1970   15.1700    9.7550 C   0  0  0  0  0  0  0  0  0  0  0  0
   26.3350   14.4500    8.6950 S   0  0  0  0  0  0  0  0  0  0  0  0
   29.2490   13.6660    8.6590 N   0  0  0  0  0  0  0  0  0  0  0  0
   28.9280    9.7410    7.7690 C   0  0  0  0  0  0  0  0  0  0  0  0
   27.6400    9.4610    7.7210 N   0  0  0  0  0  0  0  0  0  0  0  0
   24.7464    9.1845    8.6779 H   0  0  0  0  0  0  0  0  0  0  0  0
   23.8606    9.4192    7.1330 H   0  0  0  0  0  0  0  0  0  0  0  0
   25.4708    8.6230    7.1330 H   0  0  0  0  0  0  0  0  0  0  0  0
   25.2633   11.1489    6.4333 H   0  0  0  0  0  0  0  0  0  0  0  0
   25.1625   11.4143    8.2304 H   0  0  0  0  0  0  0  0  0  0  0  0
   27.7412   12.7694    7.2888 H   0  0  0  0  0  0  0  0  0  0  0  0
   32.6337   13.8009    8.2889 H   0  0  0  0  0  0  0  0  0  0  0  0
   32.2547   15.9689    9.5120 H   0  0  0  0  0  0  0  0  0  0  0  0
   29.9250   16.6157   10.1853 H   0  0  0  0  0  0  0  0  0  0  0  0
   26.9580   16.3941   12.9562 H   0  0  0  0  0  0  0  0  0  0  0  0
   24.5874   17.8477   14.0015 H   0  0  0  0  0  0  0  0  0  0  0  0
   25.9212   16.5067   15.5725 H   0  0  0  0  0  0  0  0  0  0  0  0
   27.3904   17.4562   15.1559 H   0  0  0  0  0  0  0  0  0  0  0  0
   24.8219   18.5165   16.4285 H   0  0  0  0  0  0  0  0  0  0  0  0
   26.4338   18.3073   17.2235 H   0  0  0  0  0  0  0  0  0  0  0  0
   26.3085   21.1619   14.2043 H   0  0  0  0  0  0  0  0  0  0  0  0
   24.1047   15.1145    9.6379 H   0  0  0  0  0  0  0  0  0  0  0  0
   29.7257    8.9950    7.9001 H   0  0  0  0  0  0  0  0  0  0  0  0
  1  2  1  0
  2  3  1  0
  3  4  2  0
  4  5  1  0
  5  6  1  0
  6  7  2  0
  6  8  2  0
  6  9  1  0
  9 10  2  0
 10 11  1  0
 11 12  2  0
 12 13  1  0
 13 14  1  0
 14 15  2  0
 15 16  1  0
 16 17  1  0
 17 18  2  0
 17 19  1  0
 19 20  1  0
 20 21  1  0
 21 22  1  0
 22 23  1  0
 23 24  2  0
 23 25  1  0
 25 26  1  0
 26 27  2  0
 16 28  2  0
 28 29  1  0
 13 30  2  0
  5 31  1  0
 31 32  2  0
 32  3  1  0
 30  9  1  0
 29 14  1  0
 26 20  1  0
  1 33  1  0
  1 34  1  0
  1 35  1  0
  2 36  1  0
  2 37  1  0
  4 38  1  0
 10 39  1  0
 11 40  1  0
 12 41  1  0
 19 42  1  0
 20 43  1  1
 21 44  1  0
 21 45  1  0
 22 46  1  0
 22 47  1  0
 25 48  1  0
 28 49  1  0
 31 50  1  0
M  END
>  <meeko>  (775) 
{"is_sidechain": [true], "free_energy": -11.5, "intermolecular_energy": 0.0, "internal_energy": -11.5, "cluster_size": 15, "cluster_id": 1, "rank_in_cluster": 1}

>  <_RMSD_MCS_to_ref>  (775) 
1.3393492200816524

$$$$
ligand
     RDKit          3D

 58 62  0  0  0  0  0  0  0  0999 V2000
   24.8710    9.6160    7.7820 C   0  0  0  0  0  0  0  0  0  0  0  0
   25.4240   10.9650    7.3490 C   0  0  0  0  0  0  0  0  0  0  0  0
   26.8970   10.9250    7.1360 C   0  0  0  0  0  0  0  0  0  0  0  0
   27.8990   11.5110    7.8840 C   0  0  0  0  0  0  0  0  0  0  0  0
   29.0510   11.1280    7.2590 N   0  0  0  0  0  0  0  0  0  0  0  0
   30.5830   11.7240    7.5810 S   0  0  0  0  0  6  0  0  0  0  0  0
   31.1130   12.2160    6.3270 O   0  0  0  0  0  0  0  0  0  0  0  0
   31.2510   10.7330    8.4010 O   0  0  0  0  0  0  0  0  0  0  0  0
   30.4300   13.1480    8.6230 C   0  0  0  0  0  0  0  0  0  0  0  0
   31.3450   13.9180    9.3170 C   0  0  0  0  0  0  0  0  0  0  0  0
   30.6350   14.9500    9.9810 C   0  0  0  0  0  0  0  0  0  0  0  0
   29.2870   14.7980    9.6940 C   0  0  0  0  0  0  0  0  0  0  0  0
   28.0960   15.5400   10.0810 C   0  0  0  0  0  0  0  0  0  0  0  0
   28.1800   16.7380   10.3170 O   0  0  0  0  0  0  0  0  0  0  0  0
   26.9460   14.7860   10.1390 N   0  0  0  0  0  0  0  0  0  0  0  0
   25.6270   15.1480   10.4950 C   0  0  0  0  0  0  0  0  0  0  0  0
   24.6140   14.5660    9.6980 C   0  0  0  0  0  0  0  0  0  0  0  0
   23.2460   14.8030    9.9230 C   0  0  0  0  0  0  0  0  0  0  0  0
   22.8470   15.6330   10.9600 C   0  0  0  0  0  0  0  0  0  0  0  0
   23.8450   16.2000   11.7310 C   0  0  0  0  0  0  0  0  0  0  0  0
   25.2190   15.9840   11.5260 C   0  0  0  0  0  0  0  0  0  0  0  0
   25.9690   16.7540   12.5650 C   0  0  0  0  0  0  0  0  0  0  0  0
   24.9240   17.4560   13.3020 N   0  0  0  0  0  0  0  0  0  0  0  0
   25.1570   18.1200   14.5780 C   0  0  2  0  0  0  0  0  0  0  0  0
   25.8000   19.4940   14.4120 C   0  0  0  0  0  0  0  0  0  0  0  0
   25.9320   20.1590   15.7730 C   0  0  0  0  0  0  0  0  0  0  0  0
   26.7100   19.2890   16.7330 C   0  0  0  0  0  0  0  0  0  0  0  0
   27.4440   19.7590   17.5980 O   0  0  0  0  0  0  0  0  0  0  0  0
   26.5360   17.9340   16.6130 N   0  0  0  0  0  0  0  0  0  0  0  0
   26.0250   17.2680   15.5210 C   0  0  0  0  0  0  0  0  0  0  0  0
   26.2660   16.0730   15.3590 O   0  0  0  0  0  0  0  0  0  0  0  0
   23.6620   17.0930   12.8800 C   0  0  0  0  0  0  0  0  0  0  0  0
   22.5900   17.4260   13.3440 O   0  0  0  0  0  0  0  0  0  0  0  0
   29.1930   13.6930    8.8710 N   0  0  0  0  0  0  0  0  0  0  0  0
   28.7380   10.4050    6.1530 C   0  0  0  0  0  0  0  0  0  0  0  0
   27.4340   10.2490    6.0580 N   0  0  0  0  0  0  0  0  0  0  0  0
   24.8497    9.5640    8.8806 H   0  0  0  0  0  0  0  0  0  0  0  0
   23.8507    9.4948    7.3893 H   0  0  0  0  0  0  0  0  0  0  0  0
   25.5127    8.8135    7.3893 H   0  0  0  0  0  0  0  0  0  0  0  0
   24.9376   11.2621    6.4082 H   0  0  0  0  0  0  0  0  0  0  0  0
   25.2176   11.6887    8.1513 H   0  0  0  0  0  0  0  0  0  0  0  0
   27.7933   12.1421    8.7788 H   0  0  0  0  0  0  0  0  0  0  0  0
   32.4328   13.7580    9.3484 H   0  0  0  0  0  0  0  0  0  0  0  0
   31.0764   15.7343   10.6134 H   0  0  0  0  0  0  0  0  0  0  0  0
   27.0663   13.7962    9.8808 H   0  0  0  0  0  0  0  0  0  0  0  0
   24.9071   13.9028    8.8708 H   0  0  0  0  0  0  0  0  0  0  0  0
   22.4924   14.3299    9.2763 H   0  0  0  0  0  0  0  0  0  0  0  0
   21.7837   15.8314   11.1603 H   0  0  0  0  0  0  0  0  0  0  0  0
   26.5276   16.0764   13.2274 H   0  0  0  0  0  0  0  0  0  0  0  0
   26.7150   17.4366   12.1318 H   0  0  0  0  0  0  0  0  0  0  0  0
   24.1612   18.2514   15.0264 H   0  0  0  0  0  0  0  0  0  0  0  0
   26.7969   19.3804   13.9611 H   0  0  0  0  0  0  0  0  0  0  0  0
   25.1712   20.1168   13.7588 H   0  0  0  0  0  0  0  0  0  0  0  0
   26.4555   21.1191   15.6540 H   0  0  0  0  0  0  0  0  0  0  0  0
   24.9236   20.3154   16.1836 H   0  0  0  0  0  0  0  0  0  0  0  0
   26.8151   17.3572   17.4194 H   0  0  0  0  0  0  0  0  0  0  0  0
   28.3091   13.3246    8.4917 H   0  0  0  0  0  0  0  0  0  0  0  0
   29.4711   10.0056    5.4368 H   0  0  0  0  0  0  0  0  0  0  0  0
  1  2  1  0
  2  3  1  0
  3  4  2  0
  4  5  1  0
  5  6  1  0
  6  7  2  0
  6  8  2  0
  6  9  1  0
  9 10  2  0
 10 11  1  0
 11 12  2  0
 12 13  1  0
 13 14  2  0
 13 15  1  0
 15 16  1  0
 16 17  2  0
 17 18  1  0
 18 19  2  0
 19 20  1  0
 20 21  2  0
 21 22  1  0
 22 23  1  0
 23 24  1  0
 24 25  1  0
 25 26  1  0
 26 27  1  0
 27 28  2  0
 27 29  1  0
 29 30  1  0
 30 31  2  0
 23 32  1  0
 32 33  2  0
 12 34  1  0
  5 35  1  0
 35 36  2  0
 36  3  1  0
 34  9  1  0
 21 16  1  0
 30 24  1  0
 32 20  1  0
  1 37  1  0
  1 38  1  0
  1 39  1  0
  2 40  1  0
  2 41  1  0
  4 42  1  0
 10 43  1  0
 11 44  1  0
 15 45  1  0
 17 46  1  0
 18 47  1  0
 19 48  1  0
 22 49  1  0
 22 50  1  0
 24 51  1  1
 25 52  1  0
 25 53  1  0
 26 54  1  0
 26 55  1  0
 29 56  1  0
 34 57  1  0
 35 58  1  0
M  END
>  <meeko>  (776) 
{"is_sidechain": [true], "free_energy": -11.5, "intermolecular_energy": 0.0, "internal_energy": -11.5, "cluster_size": 15, "cluster_id": 1, "rank_in_cluster": 1}

>  <_RMSD_MCS_to_ref>  (776) 
1.8329534757992203

$$$$
ligand
     RDKit          3D

 63 68  0  0  0  0  0  0  0  0999 V2000
   24.8540    9.4020    7.6050 C   0  0  0  0  0  0  0  0  0  0  0  0
   25.5230   10.7550    7.4270 C   0  0  0  0  0  0  0  0  0  0  0  0
   27.0000   10.6780    7.5910 C   0  0  0  0  0  0  0  0  0  0  0  0
   27.9110   11.7050    7.7390 C   0  0  0  0  0  0  0  0  0  0  0  0
   29.1140   11.0680    7.8750 N   0  0  0  0  0  0  0  0  0  0  0  0
   30.6120   11.8270    8.0410 S   0  0  0  0  0  6  0  0  0  0  0  0
   31.3030   11.6280    6.7790 O   0  0  0  0  0  0  0  0  0  0  0  0
   31.1470   11.2580    9.2670 O   0  0  0  0  0  0  0  0  0  0  0  0
   30.3820   13.4150    8.3090 O   0  0  0  0  0  0  0  0  0  0  0  0
   30.0700   14.2520    7.3100 C   0  0  0  0  0  0  0  0  0  0  0  0
   30.7210   14.3440    6.1130 N   0  0  0  0  0  0  0  0  0  0  0  0
   30.0770   15.2710    5.4330 C   0  0  0  0  0  0  0  0  0  0  0  0
   29.0210   15.7600    6.1630 N   0  0  0  0  0  0  0  0  0  0  0  0
   28.9990   15.1260    7.3840 C   0  0  0  0  0  0  0  0  0  0  0  0
   28.0270   15.3660    8.4440 C   0  0  0  0  0  0  0  0  0  0  0  0
   26.8910   14.5340    8.5690 C   0  0  0  0  0  0  0  0  0  0  0  0
   25.9520   14.7440    9.5830 C   0  0  0  0  0  0  0  0  0  0  0  0
   26.1740   15.8010   10.4430 C   0  0  0  0  0  0  0  0  0  0  0  0
   27.2780   16.6410   10.3330 C   0  0  0  0  0  0  0  0  0  0  0  0
   28.2170   16.4350    9.3350 C   0  0  0  0  0  0  0  0  0  0  0  0
   27.2420   17.6710   11.4100 C   0  0  0  0  0  0  0  0  0  0  0  0
   25.9720   17.4000   12.0710 N   0  0  0  0  0  0  0  0  0  0  0  0
   25.6280   18.0350   13.3390 C   0  0  1  0  0  0  0  0  0  0  0  0
   26.2710   17.3700   14.5560 C   0  0  0  0  0  0  0  0  0  0  0  0
   25.8000   18.0720   15.8200 C   0  0  0  0  0  0  0  0  0  0  0  0
   26.1110   19.5490   15.7760 C   0  0  0  0  0  0  0  0  0  0  0  0
   26.2160   20.2260   16.7940 O   0  0  0  0  0  0  0  0  0  0  0  0
   26.1890   20.1250   14.5330 N   0  0  0  0  0  0  0  0  0  0  0  0
   25.9540   19.5380   13.3110 C   0  0  0  0  0  0  0  0  0  0  0  0
   25.9100   20.2230   12.2890 O   0  0  0  0  0  0  0  0  0  0  0  0
   25.3720   16.2480   11.5860 C   0  0  0  0  0  0  0  0  0  0  0  0
   24.3880   15.6700   12.0070 O   0  0  0  0  0  0  0  0  0  0  0  0
   28.1110   16.7670    5.6460 C   0  0  0  0  0  0  0  0  0  0  0  0
   28.2250   16.8950    4.1230 C   0  0  0  0  0  0  0  0  0  0  0  0
   29.6280   16.9760    3.7020 N   0  0  0  0  0  0  0  0  0  0  0  0
   30.3430   15.7320    4.0350 C   0  0  0  0  0  0  0  0  0  0  0  0
   28.9220    9.7280    7.7700 C   0  0  0  0  0  0  0  0  0  0  0  0
   27.6420    9.4560    7.6120 N   0  0  0  0  0  0  0  0  0  0  0  0
   24.7464    9.1845    8.6779 H   0  0  0  0  0  0  0  0  0  0  0  0
   23.8606    9.4192    7.1330 H   0  0  0  0  0  0  0  0  0  0  0  0
   25.4708    8.6230    7.1330 H   0  0  0  0  0  0  0  0  0  0  0  0
   25.2978   11.1315    6.4183 H   0  0  0  0  0  0  0  0  0  0  0  0
   25.1319   11.4296    8.2029 H   0  0  0  0  0  0  0  0  0  0  0  0
   27.7145   12.7873    7.7460 H   0  0  0  0  0  0  0  0  0  0  0  0
   26.7436   13.7084    7.8572 H   0  0  0  0  0  0  0  0  0  0  0  0
   25.0717   14.0933    9.6914 H   0  0  0  0  0  0  0  0  0  0  0  0
   29.0925   17.0946    9.2426 H   0  0  0  0  0  0  0  0  0  0  0  0
   28.0853   17.5473   12.1054 H   0  0  0  0  0  0  0  0  0  0  0  0
   27.3261   18.7006   11.0320 H   0  0  0  0  0  0  0  0  0  0  0  0
   24.5421   17.9013   13.4528 H   0  0  0  0  0  0  0  0  0  0  0  0
   25.9780   16.3104   14.5933 H   0  0  0  0  0  0  0  0  0  0  0  0
   27.3659   17.4432   14.4802 H   0  0  0  0  0  0  0  0  0  0  0  0
   24.7129   17.9376   15.9205 H   0  0  0  0  0  0  0  0  0  0  0  0
   26.3278   17.6316   16.6788 H   0  0  0  0  0  0  0  0  0  0  0  0
   26.4565   21.1195   14.5122 H   0  0  0  0  0  0  0  0  0  0  0  0
   27.0800   16.4845    5.9052 H   0  0  0  0  0  0  0  0  0  0  0  0
   28.3752   17.7356    6.0954 H   0  0  0  0  0  0  0  0  0  0  0  0
   27.7593   16.0162    3.6530 H   0  0  0  0  0  0  0  0  0  0  0  0
   27.7135   17.8176    3.8113 H   0  0  0  0  0  0  0  0  0  0  0  0
   29.6675   17.1268    2.6839 H   0  0  0  0  0  0  0  0  0  0  0  0
   30.0225   14.9441    3.3375 H   0  0  0  0  0  0  0  0  0  0  0  0
   31.4208   15.9351    3.9510 H   0  0  0  0  0  0  0  0  0  0  0  0
   29.7226    8.9748    7.8110 H   0  0  0  0  0  0  0  0  0  0  0  0
  1  2  1  0
  2  3  1  0
  3  4  2  0
  4  5  1  0
  5  6  1  0
  6  7  2  0
  6  8  2  0
  6  9  1  0
  9 10  1  0
 10 11  1  0
 11 12  2  0
 12 13  1  0
 13 14  1  0
 14 15  1  0
 15 16  2  0
 16 17  1  0
 17 18  2  0
 18 19  1  0
 19 20  2  0
 19 21  1  0
 21 22  1  0
 22 23  1  0
 23 24  1  0
 24 25  1  0
 25 26  1  0
 26 27  2  0
 26 28  1  0
 28 29  1  0
 29 30  2  0
 22 31  1  0
 31 32  2  0
 13 33  1  0
 33 34  1  0
 34 35  1  0
 35 36  1  0
  5 37  1  0
 37 38  2  0
 38  3  1  0
 14 10  2  0
 20 15  1  0
 29 23  1  0
 36 12  1  0
 31 18  1  0
  1 39  1  0
  1 40  1  0
  1 41  1  0
  2 42  1  0
  2 43  1  0
  4 44  1  0
 16 45  1  0
 17 46  1  0
 20 47  1  0
 21 48  1  0
 21 49  1  0
 23 50  1  1
 24 51  1  0
 24 52  1  0
 25 53  1  0
 25 54  1  0
 28 55  1  0
 33 56  1  0
 33 57  1  0
 34 58  1  0
 34 59  1  0
 35 60  1  0
 36 61  1  0
 36 62  1  0
 37 63  1  0
M  END
>  <meeko>  (777) 
{"is_sidechain": [true], "free_energy": -11.49, "intermolecular_energy": 0.0, "internal_energy": -11.49, "cluster_size": 12, "cluster_id": 1, "rank_in_cluster": 1}

>  <_RMSD_MCS_to_ref>  (777) 
1.4303877096787425

$$$$
ligand
     RDKit          3D

 52 55  0  0  0  0  0  0  0  0999 V2000
   24.8710    9.6160    7.7820 C   0  0  0  0  0  0  0  0  0  0  0  0
   25.4240   10.9650    7.3490 C   0  0  0  0  0  0  0  0  0  0  0  0
   26.7700   11.2310    7.9260 C   0  0  0  0  0  0  0  0  0  0  0  0
   27.1030   11.9600    9.0500 C   0  0  0  0  0  0  0  0  0  0  0  0
   28.4620   11.8540    9.1290 N   0  0  0  0  0  0  0  0  0  0  0  0
   29.4550   12.7500   10.1560 S   0  0  0  0  0  6  0  0  0  0  0  0
   28.9500   12.4620   11.4860 O   0  0  0  0  0  0  0  0  0  0  0  0
   30.8080   12.4050    9.7620 O   0  0  0  0  0  0  0  0  0  0  0  0
   29.1740   14.3160    9.7770 O   0  0  0  0  0  0  0  0  0  0  0  0
   28.2490   14.5830    8.7980 C   0  0  0  0  0  0  0  0  0  0  0  0
   28.5170   14.1920    7.4850 C   0  0  0  0  0  0  0  0  0  0  0  0
   27.5790   14.4470    6.4910 C   0  0  0  0  0  0  0  0  0  0  0  0
   26.3760   15.0810    6.8110 C   0  0  0  0  0  0  0  0  0  0  0  0
   26.0900   15.4630    8.1310 C   0  0  0  0  0  0  0  0  0  0  0  0
   24.8800   16.1030    8.4530 C   0  0  0  0  0  0  0  0  0  0  0  0
   24.5930   16.4830    9.7670 C   0  0  0  0  0  0  0  0  0  0  0  0
   25.5110   16.2170   10.7860 C   0  0  0  0  0  0  0  0  0  0  0  0
   25.2680   16.6030   12.2050 C   0  0  0  0  0  0  0  0  0  0  0  0
   24.5280   15.9270   12.9120 O   0  0  0  0  0  0  0  0  0  0  0  0
   25.8790   17.7540   12.6490 N   0  0  0  0  0  0  0  0  0  0  0  0
   25.5840   18.3000   13.9660 C   0  0  1  0  0  0  0  0  0  0  0  0
   26.3190   17.5610   15.0780 C   0  0  0  0  0  0  0  0  0  0  0  0
   25.9980   18.2070   16.4160 C   0  0  0  0  0  0  0  0  0  0  0  0
   26.3290   19.6810   16.4060 C   0  0  0  0  0  0  0  0  0  0  0  0
   26.7350   20.2720   17.4030 O   0  0  0  0  0  0  0  0  0  0  0  0
   26.1270   20.3490   15.2260 N   0  0  0  0  0  0  0  0  0  0  0  0
   26.0050   19.7740   13.9850 C   0  0  0  0  0  0  0  0  0  0  0  0
   26.2130   20.4200   12.9590 O   0  0  0  0  0  0  0  0  0  0  0  0
   26.7220   15.5880   10.4730 C   0  0  0  0  0  0  0  0  0  0  0  0
   27.0330   15.2050    9.1510 C   0  0  0  0  0  0  0  0  0  0  0  0
   28.9160   11.1640    8.0510 C   0  0  0  0  0  0  0  0  0  0  0  0
   27.9090   10.7450    7.3140 N   0  0  0  0  0  0  0  0  0  0  0  0
   24.8497    9.5640    8.8806 H   0  0  0  0  0  0  0  0  0  0  0  0
   23.8507    9.4948    7.3893 H   0  0  0  0  0  0  0  0  0  0  0  0
   25.5127    8.8135    7.3893 H   0  0  0  0  0  0  0  0  0  0  0  0
   25.4991   10.9816    6.2517 H   0  0  0  0  0  0  0  0  0  0  0  0
   24.7392   11.7444    7.7146 H   0  0  0  0  0  0  0  0  0  0  0  0
   26.4274   12.5026    9.7276 H   0  0  0  0  0  0  0  0  0  0  0  0
   29.4624   13.6864    7.2389 H   0  0  0  0  0  0  0  0  0  0  0  0
   27.7842   14.1494    5.4521 H   0  0  0  0  0  0  0  0  0  0  0  0
   25.6422   15.2838    6.0170 H   0  0  0  0  0  0  0  0  0  0  0  0
   24.1477   16.3078    7.6581 H   0  0  0  0  0  0  0  0  0  0  0  0
   23.6452   16.9910    9.9986 H   0  0  0  0  0  0  0  0  0  0  0  0
   26.5553   18.2363   12.0400 H   0  0  0  0  0  0  0  0  0  0  0  0
   24.5053   18.1858   14.1488 H   0  0  0  0  0  0  0  0  0  0  0  0
   25.9984   16.5088   15.0928 H   0  0  0  0  0  0  0  0  0  0  0  0
   27.4029   17.6123   14.8974 H   0  0  0  0  0  0  0  0  0  0  0  0
   24.9256   18.0818   16.6265 H   0  0  0  0  0  0  0  0  0  0  0  0
   26.6059   17.7194   17.1923 H   0  0  0  0  0  0  0  0  0  0  0  0
   26.0607   21.3757   15.2747 H   0  0  0  0  0  0  0  0  0  0  0  0
   27.4472   15.3879   11.2755 H   0  0  0  0  0  0  0  0  0  0  0  0
   29.9769   10.9809    7.8253 H   0  0  0  0  0  0  0  0  0  0  0  0
  1  2  1  0
  2  3  1  0
  3  4  2  0
  4  5  1  0
  5  6  1  0
  6  7  2  0
  6  8  2  0
  6  9  1  0
  9 10  1  0
 10 11  2  0
 11 12  1  0
 12 13  2  0
 13 14  1  0
 14 15  2  0
 15 16  1  0
 16 17  2  0
 17 18  1  0
 18 19  2  0
 18 20  1  0
 20 21  1  0
 21 22  1  0
 22 23  1  0
 23 24  1  0
 24 25  2  0
 24 26  1  0
 26 27  1  0
 27 28  2  0
 17 29  1  0
 29 30  2  0
  5 31  1  0
 31 32  2  0
 32  3  1  0
 30 10  1  0
 30 14  1  0
 27 21  1  0
  1 33  1  0
  1 34  1  0
  1 35  1  0
  2 36  1  0
  2 37  1  0
  4 38  1  0
 11 39  1  0
 12 40  1  0
 13 41  1  0
 15 42  1  0
 16 43  1  0
 20 44  1  0
 21 45  1  1
 22 46  1  0
 22 47  1  0
 23 48  1  0
 23 49  1  0
 26 50  1  0
 29 51  1  0
 31 52  1  0
M  END
>  <meeko>  (778) 
{"is_sidechain": [true], "free_energy": -11.49, "intermolecular_energy": 0.0, "internal_energy": -11.49, "cluster_size": 20, "cluster_id": 1, "rank_in_cluster": 1}

>  <_RMSD_MCS_to_ref>  (778) 
0.9740464282797021

$$$$
ligand
     RDKit          3D

 51 54  0  0  0  0  0  0  0  0999 V2000
   24.8710    9.6170    7.7820 C   0  0  0  0  0  0  0  0  0  0  0  0
   25.4240   10.9640    7.3490 C   0  0  0  0  0  0  0  0  0  0  0  0
   26.7850   11.2140    7.8970 C   0  0  0  0  0  0  0  0  0  0  0  0
   27.1440   11.8190    9.0860 C   0  0  0  0  0  0  0  0  0  0  0  0
   28.5090   11.8060    9.0700 N   0  0  0  0  0  0  0  0  0  0  0  0
   29.5040   12.6790   10.1220 S   0  0  0  0  0  6  0  0  0  0  0  0
   30.8620   12.3350    9.7380 O   0  0  0  0  0  0  0  0  0  0  0  0
   28.9950   12.3570   11.4410 O   0  0  0  0  0  0  0  0  0  0  0  0
   29.2510   14.2760    9.8530 O   0  0  0  0  0  0  0  0  0  0  0  0
   27.9830   14.6970    9.5620 C   0  0  0  0  0  0  0  0  0  0  0  0
   27.4290   14.4580    8.3130 C   0  0  0  0  0  0  0  0  0  0  0  0
   26.1320   14.8920    8.0530 C   0  0  0  0  0  0  0  0  0  0  0  0
   25.3790   15.5630    9.0350 C   0  0  0  0  0  0  0  0  0  0  0  0
   24.0740   15.9790    8.7480 C   0  0  0  0  0  0  0  0  0  0  0  0
   23.3460   16.6350    9.7230 C   0  0  0  0  0  0  0  0  0  0  0  0
   23.8180   16.8960   10.9540 N   0  0  0  0  0  0  0  0  0  0  0  0
   25.0920   16.4800   11.2370 C   0  0  0  0  0  0  0  0  0  0  0  0
   25.4970   16.7770   12.6680 C   0  0  0  0  0  0  0  0  0  0  0  0
   25.9370   15.9410   13.4460 O   0  0  0  0  0  0  0  0  0  0  0  0
   25.3000   18.0920   13.0400 N   0  0  0  0  0  0  0  0  0  0  0  0
   25.4270   18.5470   14.4110 C   0  0  1  0  0  0  0  0  0  0  0  0
   26.6040   17.8880   15.1240 C   0  0  0  0  0  0  0  0  0  0  0  0
   26.6950   18.4150   16.5480 C   0  0  0  0  0  0  0  0  0  0  0  0
   26.8000   19.9210   16.5700 C   0  0  0  0  0  0  0  0  0  0  0  0
   27.4360   20.5240   17.4290 O   0  0  0  0  0  0  0  0  0  0  0  0
   26.1130   20.5980   15.5940 N   0  0  0  0  0  0  0  0  0  0  0  0
   25.6200   20.0680   14.4270 C   0  0  0  0  0  0  0  0  0  0  0  0
   25.3370   20.7950   13.4760 O   0  0  0  0  0  0  0  0  0  0  0  0
   25.9360   15.8180   10.3110 C   0  0  0  0  0  0  0  0  0  0  0  0
   27.2700   15.3930   10.5380 C   0  0  0  0  0  0  0  0  0  0  0  0
   28.9360   11.2490    7.9070 C   0  0  0  0  0  0  0  0  0  0  0  0
   27.9110   10.8570    7.1790 N   0  0  0  0  0  0  0  0  0  0  0  0
   24.8498    9.5653    8.8806 H   0  0  0  0  0  0  0  0  0  0  0  0
   23.8505    9.4962    7.3895 H   0  0  0  0  0  0  0  0  0  0  0  0
   25.5122    8.8140    7.3895 H   0  0  0  0  0  0  0  0  0  0  0  0
   25.4739   10.9902    6.2504 H   0  0  0  0  0  0  0  0  0  0  0  0
   24.7542   11.7453    7.7374 H   0  0  0  0  0  0  0  0  0  0  0  0
   26.4813   12.2197    9.8672 H   0  0  0  0  0  0  0  0  0  0  0  0
   28.0067   13.9326    7.5383 H   0  0  0  0  0  0  0  0  0  0  0  0
   25.6882   14.7075    7.0636 H   0  0  0  0  0  0  0  0  0  0  0  0
   23.6330   15.7864    7.7588 H   0  0  0  0  0  0  0  0  0  0  0  0
   22.3245   16.9612    9.4779 H   0  0  0  0  0  0  0  0  0  0  0  0
   25.0525   18.7786   12.3132 H   0  0  0  0  0  0  0  0  0  0  0  0
   24.5059   18.2668   14.9431 H   0  0  0  0  0  0  0  0  0  0  0  0
   26.4560   16.7982   15.1453 H   0  0  0  0  0  0  0  0  0  0  0  0
   27.5350   18.1217   14.5868 H   0  0  0  0  0  0  0  0  0  0  0  0
   25.7942   18.1105   17.1010 H   0  0  0  0  0  0  0  0  0  0  0  0
   27.5987   17.9971   17.0157 H   0  0  0  0  0  0  0  0  0  0  0  0
   25.9511   21.6028   15.7523 H   0  0  0  0  0  0  0  0  0  0  0  0
   27.7512   15.6164   11.5016 H   0  0  0  0  0  0  0  0  0  0  0  0
   29.9907   11.1405    7.6142 H   0  0  0  0  0  0  0  0  0  0  0  0
  1  2  1  0
  2  3  1  0
  3  4  2  0
  4  5  1  0
  5  6  1  0
  6  7  2  0
  6  8  2  0
  6  9  1  0
  9 10  1  0
 10 11  2  0
 11 12  1  0
 12 13  2  0
 13 14  1  0
 14 15  2  0
 15 16  1  0
 16 17  2  0
 17 18  1  0
 18 19  2  0
 18 20  1  0
 20 21  1  0
 21 22  1  0
 22 23  1  0
 23 24  1  0
 24 25  2  0
 24 26  1  0
 26 27  1  0
 27 28  2  0
 17 29  1  0
 29 30  2  0
  5 31  1  0
 31 32  2  0
 32  3  1  0
 30 10  1  0
 29 13  1  0
 27 21  1  0
  1 33  1  0
  1 34  1  0
  1 35  1  0
  2 36  1  0
  2 37  1  0
  4 38  1  0
 11 39  1  0
 12 40  1  0
 14 41  1  0
 15 42  1  0
 20 43  1  0
 21 44  1  1
 22 45  1  0
 22 46  1  0
 23 47  1  0
 23 48  1  0
 26 49  1  0
 30 50  1  0
 31 51  1  0
M  END
>  <meeko>  (779) 
{"is_sidechain": [true], "free_energy": -11.49, "intermolecular_energy": 0.0, "internal_energy": -11.49, "cluster_size": 4, "cluster_id": 1, "rank_in_cluster": 1}

>  <_RMSD_MCS_to_ref>  (779) 
0.7536450682442561

$$$$
ligand
     RDKit          3D

 54 58  0  0  0  0  0  0  0  0999 V2000
   24.8710    9.6160    7.7820 C   0  0  0  0  0  0  0  0  0  0  0  0
   25.4240   10.9650    7.3490 C   0  0  0  0  0  0  0  0  0  0  0  0
   26.6020   11.3750    8.1610 C   0  0  0  0  0  0  0  0  0  0  0  0
   27.8330   11.8360    7.7370 C   0  0  0  0  0  0  0  0  0  0  0  0
   28.5350   12.0270    8.8940 N   0  0  0  0  0  0  0  0  0  0  0  0
   30.0230   12.8080    9.0230 S   0  0  0  0  0  6  0  0  0  0  0  0
   30.2450   12.9430   10.4510 O   0  0  0  0  0  0  0  0  0  0  0  0
   30.9170   12.0330    8.1840 O   0  0  0  0  0  0  0  0  0  0  0  0
   29.8070   14.2840    8.3670 O   0  0  0  0  0  0  0  0  0  0  0  0
   28.7030   14.6090    7.6280 C   0  0  0  0  0  0  0  0  0  0  0  0
   28.5550   14.4200    6.2490 C   0  0  0  0  0  0  0  0  0  0  0  0
   27.3660   14.7940    5.5820 C   0  0  0  0  0  0  0  0  0  0  0  0
   26.2970   15.3670    6.2710 C   0  0  0  0  0  0  0  0  0  0  0  0
   26.4550   15.5480    7.6260 C   0  0  0  0  0  0  0  0  0  0  0  0
   27.6430   15.1790    8.3180 C   0  0  0  0  0  0  0  0  0  0  0  0
   27.5780   15.4820    9.8320 C   0  0  0  0  0  0  0  0  0  0  0  0
   26.2050   16.0570    9.8480 C   0  0  0  0  0  0  0  0  0  0  0  0
   25.2700   16.6060   10.7370 C   0  0  0  0  0  0  0  0  0  0  0  0
   25.4200   16.7970   12.1860 C   0  0  0  0  0  0  0  0  0  0  0  0
   25.5460   15.8660   12.9750 O   0  0  0  0  0  0  0  0  0  0  0  0
   25.3940   18.1170   12.5690 N   0  0  0  0  0  0  0  0  0  0  0  0
   25.3580   18.5270   13.9590 C   0  0  1  0  0  0  0  0  0  0  0  0
   26.3790   17.7710   14.8020 C   0  0  0  0  0  0  0  0  0  0  0  0
   26.3060   18.2540   16.2420 C   0  0  0  0  0  0  0  0  0  0  0  0
   26.5030   19.7490   16.3310 C   0  0  0  0  0  0  0  0  0  0  0  0
   27.0500   20.2850   17.2900 O   0  0  0  0  0  0  0  0  0  0  0  0
   26.0070   20.4960   15.2930 N   0  0  0  0  0  0  0  0  0  0  0  0
   25.6410   20.0300   14.0530 C   0  0  0  0  0  0  0  0  0  0  0  0
   25.5320   20.7990   13.0990 O   0  0  0  0  0  0  0  0  0  0  0  0
   24.1360   16.9560   10.0710 N   0  0  0  0  0  0  0  0  0  0  0  0
   24.3790   16.6210    8.7750 N   0  0  0  0  0  0  0  0  0  0  0  0
   25.6030   16.0870    8.6240 C   0  0  0  0  0  0  0  0  0  0  0  0
   27.7240   11.7730    9.9520 C   0  0  0  0  0  0  0  0  0  0  0  0
   26.5480   11.3480    9.5410 N   0  0  0  0  0  0  0  0  0  0  0  0
   24.8497    9.5640    8.8806 H   0  0  0  0  0  0  0  0  0  0  0  0
   23.8507    9.4948    7.3893 H   0  0  0  0  0  0  0  0  0  0  0  0
   25.5127    8.8135    7.3893 H   0  0  0  0  0  0  0  0  0  0  0  0
   25.7258   10.9020    6.2931 H   0  0  0  0  0  0  0  0  0  0  0  0
   24.6344   11.7169    7.4947 H   0  0  0  0  0  0  0  0  0  0  0  0
   28.1709   12.0096    6.7047 H   0  0  0  0  0  0  0  0  0  0  0  0
   29.3789   13.9723    5.6738 H   0  0  0  0  0  0  0  0  0  0  0  0
   27.2821   14.6298    4.4976 H   0  0  0  0  0  0  0  0  0  0  0  0
   25.3708   15.6605    5.7552 H   0  0  0  0  0  0  0  0  0  0  0  0
   27.6600   14.5731   10.4462 H   0  0  0  0  0  0  0  0  0  0  0  0
   28.3797   16.1148   10.2405 H   0  0  0  0  0  0  0  0  0  0  0  0
   25.4004   18.8438   11.8392 H   0  0  0  0  0  0  0  0  0  0  0  0
   24.3566   18.2967   14.3515 H   0  0  0  0  0  0  0  0  0  0  0  0
   26.1591   16.6938   14.7651 H   0  0  0  0  0  0  0  0  0  0  0  0
   27.3886   17.9534   14.4052 H   0  0  0  0  0  0  0  0  0  0  0  0
   25.3198   17.9974   16.6563 H   0  0  0  0  0  0  0  0  0  0  0  0
   27.1081   17.7639   16.8133 H   0  0  0  0  0  0  0  0  0  0  0  0
   25.8980   21.5066   15.4594 H   0  0  0  0  0  0  0  0  0  0  0  0
   23.7085   16.7594    8.0055 H   0  0  0  0  0  0  0  0  0  0  0  0
   28.0096   11.9040   11.0062 H   0  0  0  0  0  0  0  0  0  0  0  0
  1  2  1  0
  2  3  1  0
  3  4  2  0
  4  5  1  0
  5  6  1  0
  6  7  2  0
  6  8  2  0
  6  9  1  0
  9 10  1  0
 10 11  2  0
 11 12  1  0
 12 13  2  0
 13 14  1  0
 14 15  2  0
 15 16  1  0
 16 17  1  0
 17 18  1  0
 18 19  1  0
 19 20  2  0
 19 21  1  0
 21 22  1  0
 22 23  1  0
 23 24  1  0
 24 25  1  0
 25 26  2  0
 25 27  1  0
 27 28  1  0
 28 29  2  0
 18 30  2  0
 30 31  1  0
 31 32  1  0
  5 33  1  0
 33 34  2  0
 34  3  1  0
 15 10  1  0
 32 17  2  0
 32 14  1  0
 28 22  1  0
  1 35  1  0
  1 36  1  0
  1 37  1  0
  2 38  1  0
  2 39  1  0
  4 40  1  0
 11 41  1  0
 12 42  1  0
 13 43  1  0
 16 44  1  0
 16 45  1  0
 21 46  1  0
 22 47  1  1
 23 48  1  0
 23 49  1  0
 24 50  1  0
 24 51  1  0
 27 52  1  0
 31 53  1  0
 33 54  1  0
M  END
>  <meeko>  (780) 
{"is_sidechain": [true], "free_energy": -11.49, "intermolecular_energy": 0.0, "internal_energy": -11.49, "cluster_size": 20, "cluster_id": 1, "rank_in_cluster": 1}

>  <_RMSD_MCS_to_ref>  (780) 
0.822176582817422

$$$$
ligand
     RDKit          3D

 56 60  0  0  0  0  0  0  0  0999 V2000
   24.8540    9.4020    7.6050 C   0  0  0  0  0  0  0  0  0  0  0  0
   25.5230   10.7550    7.4270 C   0  0  0  0  0  0  0  0  0  0  0  0
   25.1280   11.4140    6.1530 C   0  0  0  0  0  0  0  0  0  0  0  0
   25.5890   12.5960    5.6070 C   0  0  0  0  0  0  0  0  0  0  0  0
   24.8970   12.7160    4.4350 N   0  0  0  0  0  0  0  0  0  0  0  0
   24.9440   14.0270    3.3830 S   0  0  0  0  0  6  0  0  0  0  0  0
   26.2020   13.8800    2.6670 O   0  0  0  0  0  0  0  0  0  0  0  0
   23.6590   14.0090    2.7030 O   0  0  0  0  0  0  0  0  0  0  0  0
   25.0280   15.4430    4.4530 C   0  0  0  0  0  0  0  0  0  0  0  0
   24.6220   16.6190    3.9440 N   0  0  0  0  0  0  0  0  0  0  0  0
   24.7240   17.6520    4.7930 C   0  0  0  0  0  0  0  0  0  0  0  0
   25.1900   17.5270    6.0860 C   0  0  0  0  0  0  0  0  0  0  0  0
   25.5590   16.2630    6.5110 C   0  0  0  0  0  0  0  0  0  0  0  0
   26.0660   16.0110    7.7870 N   0  0  0  0  0  0  0  0  0  0  0  0
   25.5750   16.2940    9.0750 C   0  0  0  0  0  0  0  0  0  0  0  0
   24.4590   15.5500    9.5350 C   0  0  0  0  0  0  0  0  0  0  0  0
   23.9190   15.7260   10.8160 C   0  0  0  0  0  0  0  0  0  0  0  0
   24.5080   16.6600   11.6440 C   0  0  0  0  0  0  0  0  0  0  0  0
   25.6050   17.3890   11.1950 C   0  0  0  0  0  0  0  0  0  0  0  0
   26.1560   17.2310    9.9350 C   0  0  0  0  0  0  0  0  0  0  0  0
   26.0250   18.2910   12.2710 C   0  0  0  0  0  0  0  0  0  0  0  0
   26.9940   19.0250   12.2260 O   0  0  0  0  0  0  0  0  0  0  0  0
   25.1200   18.1280   13.3090 N   0  0  0  0  0  0  0  0  0  0  0  0
   25.3690   18.6710   14.6380 C   0  0  1  0  0  0  0  0  0  0  0  0
   26.5300   17.9780   15.3440 C   0  0  0  0  0  0  0  0  0  0  0  0
   26.6720   18.5390   16.7510 C   0  0  0  0  0  0  0  0  0  0  0  0
   26.8430   20.0400   16.7250 C   0  0  0  0  0  0  0  0  0  0  0  0
   27.5640   20.6330   17.5220 O   0  0  0  0  0  0  0  0  0  0  0  0
   26.1330   20.7210   15.7700 N   0  0  0  0  0  0  0  0  0  0  0  0
   25.6380   20.1860   14.6030 C   0  0  0  0  0  0  0  0  0  0  0  0
   25.4470   20.9040   13.6230 O   0  0  0  0  0  0  0  0  0  0  0  0
   24.1760   17.0480   13.0460 C   0  0  0  0  0  0  0  0  0  0  0  0
   25.5030   15.2030    5.6900 N   0  0  0  0  0  0  0  0  0  0  0  0
   24.0420   11.6680    4.3140 C   0  0  0  0  0  0  0  0  0  0  0  0
   24.1670   10.8480    5.3370 N   0  0  0  0  0  0  0  0  0  0  0  0
   24.7464    9.1845    8.6779 H   0  0  0  0  0  0  0  0  0  0  0  0
   23.8606    9.4192    7.1330 H   0  0  0  0  0  0  0  0  0  0  0  0
   25.4708    8.6230    7.1330 H   0  0  0  0  0  0  0  0  0  0  0  0
   25.2356   11.4054    8.2662 H   0  0  0  0  0  0  0  0  0  0  0  0
   26.6107   10.5930    7.4003 H   0  0  0  0  0  0  0  0  0  0  0  0
   26.3412   13.2835    6.0210 H   0  0  0  0  0  0  0  0  0  0  0  0
   24.4210   18.6492    4.4411 H   0  0  0  0  0  0  0  0  0  0  0  0
   25.2652   18.3985    6.7529 H   0  0  0  0  0  0  0  0  0  0  0  0
   26.9738   15.5245    7.7854 H   0  0  0  0  0  0  0  0  0  0  0  0
   24.0013   14.8091    8.8630 H   0  0  0  0  0  0  0  0  0  0  0  0
   23.0521   15.1377   11.1514 H   0  0  0  0  0  0  0  0  0  0  0  0
   27.0260   17.8255    9.6193 H   0  0  0  0  0  0  0  0  0  0  0  0
   24.4468   18.4813   15.2069 H   0  0  0  0  0  0  0  0  0  0  0  0
   26.3343   16.8969   15.3978 H   0  0  0  0  0  0  0  0  0  0  0  0
   27.4595   18.1536   14.7825 H   0  0  0  0  0  0  0  0  0  0  0  0
   25.7699   18.2904   17.3293 H   0  0  0  0  0  0  0  0  0  0  0  0
   27.5646   18.0943   17.2153 H   0  0  0  0  0  0  0  0  0  0  0  0
   25.9545   21.7209   15.9412 H   0  0  0  0  0  0  0  0  0  0  0  0
   24.3315   16.2073   13.7381 H   0  0  0  0  0  0  0  0  0  0  0  0
   23.1249   17.3429   13.1812 H   0  0  0  0  0  0  0  0  0  0  0  0
   23.3422   11.5239    3.4777 H   0  0  0  0  0  0  0  0  0  0  0  0
  1  2  1  0
  2  3  1  0
  3  4  2  0
  4  5  1  0
  5  6  1  0
  6  7  2  0
  6  8  2  0
  6  9  1  0
  9 10  2  0
 10 11  1  0
 11 12  2  0
 12 13  1  0
 13 14  1  0
 14 15  1  0
 15 16  2  0
 16 17  1  0
 17 18  2  0
 18 19  1  0
 19 20  2  0
 19 21  1  0
 21 22  2  0
 21 23  1  0
 23 24  1  0
 24 25  1  0
 25 26  1  0
 26 27  1  0
 27 28  2  0
 27 29  1  0
 29 30  1  0
 30 31  2  0
 23 32  1  0
 13 33  2  0
  5 34  1  0
 34 35  2  0
 35  3  1  0
 33  9  1  0
 20 15  1  0
 30 24  1  0
 32 18  1  0
  1 36  1  0
  1 37  1  0
  1 38  1  0
  2 39  1  0
  2 40  1  0
  4 41  1  0
 11 42  1  0
 12 43  1  0
 14 44  1  0
 16 45  1  0
 17 46  1  0
 20 47  1  0
 24 48  1  1
 25 49  1  0
 25 50  1  0
 26 51  1  0
 26 52  1  0
 29 53  1  0
 32 54  1  0
 32 55  1  0
 34 56  1  0
M  END
>  <meeko>  (781) 
{"is_sidechain": [true], "free_energy": -11.48, "intermolecular_energy": 0.0, "internal_energy": -11.48, "cluster_size": 12, "cluster_id": 1, "rank_in_cluster": 1}

>  <_RMSD_MCS_to_ref>  (781) 
0.5762514883085138

$$$$
ligand
     RDKit          3D

 62 66  0  0  0  0  0  0  0  0999 V2000
   24.8540    9.4020    7.6050 C   0  0  0  0  0  0  0  0  0  0  0  0
   25.5230   10.7550    7.4270 C   0  0  0  0  0  0  0  0  0  0  0  0
   26.9860   10.6960    7.6940 C   0  0  0  0  0  0  0  0  0  0  0  0
   27.8200   11.6790    8.1880 C   0  0  0  0  0  0  0  0  0  0  0  0
   29.0490   11.0830    8.2430 N   0  0  0  0  0  0  0  0  0  0  0  0
   30.5130   11.8870    8.4680 S   0  0  0  0  0  6  0  0  0  0  0  0
   30.4150   12.5260    9.7660 O   0  0  0  0  0  0  0  0  0  0  0  0
   31.5480   10.9270    8.1450 O   0  0  0  0  0  0  0  0  0  0  0  0
   30.4610   13.1310    7.2050 C   0  0  0  0  0  0  0  0  0  0  0  0
   31.6260   13.4240    6.4740 C   0  0  0  0  0  0  0  0  0  0  0  0
   31.6210   14.4610    5.5390 C   0  0  0  0  0  0  0  0  0  0  0  0
   30.4560   15.1920    5.3710 C   0  0  0  0  0  0  0  0  0  0  0  0
   29.2930   14.8840    6.0860 C   0  0  0  0  0  0  0  0  0  0  0  0
   29.2700   13.8320    6.9900 C   0  0  0  0  0  0  0  0  0  0  0  0
   28.1700   15.8230    5.7060 C   0  0  1  0  0  0  0  0  0  0  0  0
   27.3150   16.3320    6.8640 C   0  0  0  0  0  0  0  0  0  0  0  0
   26.1100   16.5040    6.6970 O   0  0  0  0  0  0  0  0  0  0  0  0
   28.0190   16.5890    8.0290 N   0  0  0  0  0  0  0  0  0  0  0  0
   27.5000   16.9370    9.2920 C   0  0  0  0  0  0  0  0  0  0  0  0
   26.5020   16.1100    9.8190 C   0  0  0  0  0  0  0  0  0  0  0  0
   25.9030   16.4040   11.0480 C   0  0  0  0  0  0  0  0  0  0  0  0
   26.2960   17.5290   11.7830 C   0  0  0  0  0  0  0  0  0  0  0  0
   25.6490   17.8220   13.1260 C   0  0  1  0  0  0  0  0  0  0  0  0
   26.3010   16.9730   14.2220 C   0  0  0  0  0  0  0  0  0  0  0  0
   25.6130   17.2330   15.5530 C   0  0  0  0  0  0  0  0  0  0  0  0
   25.6530   18.6980   15.9070 C   0  0  0  0  0  0  0  0  0  0  0  0
   25.5770   19.0950   17.0670 O   0  0  0  0  0  0  0  0  0  0  0  0
   25.7100   19.5790   14.8570 N   0  0  0  0  0  0  0  0  0  0  0  0
   25.6770   19.3010   13.5090 C   0  0  0  0  0  0  0  0  0  0  0  0
   25.6070   20.2240   12.7010 O   0  0  0  0  0  0  0  0  0  0  0  0
   27.3060   18.3470   11.2570 C   0  0  0  0  0  0  0  0  0  0  0  0
   27.8980   18.0560   10.0220 C   0  0  0  0  0  0  0  0  0  0  0  0
   28.9550   16.9630    5.0300 C   0  0  0  0  0  0  0  0  0  0  0  0
   30.2200   16.3330    4.4300 C   0  0  0  0  0  0  0  0  0  0  0  0
   28.9480    9.8170    7.7580 C   0  0  0  0  0  0  0  0  0  0  0  0
   27.7040    9.5500    7.4160 N   0  0  0  0  0  0  0  0  0  0  0  0
   24.7464    9.1845    8.6779 H   0  0  0  0  0  0  0  0  0  0  0  0
   23.8606    9.4192    7.1330 H   0  0  0  0  0  0  0  0  0  0  0  0
   25.4708    8.6230    7.1330 H   0  0  0  0  0  0  0  0  0  0  0  0
   25.3647   11.0956    6.3931 H   0  0  0  0  0  0  0  0  0  0  0  0
   25.0747   11.4521    8.1502 H   0  0  0  0  0  0  0  0  0  0  0  0
   27.5556   12.7081    8.4727 H   0  0  0  0  0  0  0  0  0  0  0  0
   32.5411   12.8363    6.6388 H   0  0  0  0  0  0  0  0  0  0  0  0
   32.5206   14.6921    4.9497 H   0  0  0  0  0  0  0  0  0  0  0  0
   28.3458   13.5583    7.5201 H   0  0  0  0  0  0  0  0  0  0  0  0
   27.4123   15.3276    5.0811 H   0  0  0  0  0  0  0  0  0  0  0  0
   29.0445   16.5171    7.9643 H   0  0  0  0  0  0  0  0  0  0  0  0
   26.1846   15.2176    9.2597 H   0  0  0  0  0  0  0  0  0  0  0  0
   25.1151   15.7447   11.4412 H   0  0  0  0  0  0  0  0  0  0  0  0
   24.5873   17.5524   13.0258 H   0  0  0  0  0  0  0  0  0  0  0  0
   26.2061   15.9079   13.9638 H   0  0  0  0  0  0  0  0  0  0  0  0
   27.3646   17.2411   14.3045 H   0  0  0  0  0  0  0  0  0  0  0  0
   24.5642   16.9083   15.4849 H   0  0  0  0  0  0  0  0  0  0  0  0
   26.1418   16.6696   16.3359 H   0  0  0  0  0  0  0  0  0  0  0  0
   25.7873   20.5747   15.1091 H   0  0  0  0  0  0  0  0  0  0  0  0
   27.6380   19.2300   11.8227 H   0  0  0  0  0  0  0  0  0  0  0  0
   28.6834   18.7156    9.6245 H   0  0  0  0  0  0  0  0  0  0  0  0
   28.3476   17.4228    4.2365 H   0  0  0  0  0  0  0  0  0  0  0  0
   29.2107   17.7506    5.7541 H   0  0  0  0  0  0  0  0  0  0  0  0
   30.0450   15.9785    3.4035 H   0  0  0  0  0  0  0  0  0  0  0  0
   31.0694   17.0263    4.3416 H   0  0  0  0  0  0  0  0  0  0  0  0
   29.7882    9.1133    7.6641 H   0  0  0  0  0  0  0  0  0  0  0  0
  1  2  1  0
  2  3  1  0
  3  4  2  0
  4  5  1  0
  5  6  1  0
  6  7  2  0
  6  8  2  0
  6  9  1  0
  9 10  2  0
 10 11  1  0
 11 12  2  0
 12 13  1  0
 13 14  2  0
 13 15  1  0
 15 16  1  0
 16 17  2  0
 16 18  1  0
 18 19  1  0
 19 20  2  0
 20 21  1  0
 21 22  2  0
 22 23  1  0
 23 24  1  0
 24 25  1  0
 25 26  1  0
 26 27  2  0
 26 28  1  0
 28 29  1  0
 29 30  2  0
 22 31  1  0
 31 32  2  0
 15 33  1  0
 33 34  1  0
  5 35  1  0
 35 36  2  0
 36  3  1  0
 14  9  1  0
 32 19  1  0
 34 12  1  0
 29 23  1  0
  1 37  1  0
  1 38  1  0
  1 39  1  0
  2 40  1  0
  2 41  1  0
  4 42  1  0
 10 43  1  0
 11 44  1  0
 14 45  1  0
 15 46  1  6
 18 47  1  0
 20 48  1  0
 21 49  1  0
 23 50  1  6
 24 51  1  0
 24 52  1  0
 25 53  1  0
 25 54  1  0
 28 55  1  0
 31 56  1  0
 32 57  1  0
 33 58  1  0
 33 59  1  0
 34 60  1  0
 34 61  1  0
 35 62  1  0
M  END
>  <meeko>  (782) 
{"is_sidechain": [true], "free_energy": -11.48, "intermolecular_energy": 0.0, "internal_energy": -11.48, "cluster_size": 20, "cluster_id": 1, "rank_in_cluster": 1}

>  <_RMSD_MCS_to_ref>  (782) 
1.7353845395185465

$$$$
ligand
     RDKit          3D

 55 59  0  0  0  0  0  0  0  0999 V2000
   24.8710    9.6170    7.7820 C   0  0  0  0  0  0  0  0  0  0  0  0
   25.4240   10.9640    7.3490 C   0  0  0  0  0  0  0  0  0  0  0  0
   26.8260   11.1750    7.8030 C   0  0  0  0  0  0  0  0  0  0  0  0
   27.3140   12.0800    8.7240 C   0  0  0  0  0  0  0  0  0  0  0  0
   28.6540   11.8210    8.7740 N   0  0  0  0  0  0  0  0  0  0  0  0
   29.8110   12.7880    9.5270 S   0  0  0  0  0  6  0  0  0  0  0  0
   29.4680   12.7410   10.9360 O   0  0  0  0  0  0  0  0  0  0  0  0
   31.0860   12.3030    9.0380 O   0  0  0  0  0  0  0  0  0  0  0  0
   29.5820   14.2990    8.9420 O   0  0  0  0  0  0  0  0  0  0  0  0
   28.9400   14.4150    7.7460 C   0  0  0  0  0  0  0  0  0  0  0  0
   29.5550   14.0510    6.5690 C   0  0  0  0  0  0  0  0  0  0  0  0
   28.9640   14.1640    5.3650 N   0  0  0  0  0  0  0  0  0  0  0  0
   27.7190   14.6640    5.3690 C   0  0  0  0  0  0  0  0  0  0  0  0
   27.0250   15.0460    6.4530 N   0  0  0  0  0  0  0  0  0  0  0  0
   27.6440   14.9000    7.6470 C   0  0  0  0  0  0  0  0  0  0  0  0
   26.8610   15.3240    8.8190 C   0  0  0  0  0  0  0  0  0  0  0  0
   25.5650   14.7960    9.0630 C   0  0  0  0  0  0  0  0  0  0  0  0
   24.8340   15.1500   10.2010 C   0  0  0  0  0  0  0  0  0  0  0  0
   25.4200   16.0360   11.0800 C   0  0  0  0  0  0  0  0  0  0  0  0
   26.6770   16.5930   10.8620 C   0  0  0  0  0  0  0  0  0  0  0  0
   27.4050   16.2510    9.7330 C   0  0  0  0  0  0  0  0  0  0  0  0
   27.0190   17.5340   11.9670 C   0  0  0  0  0  0  0  0  0  0  0  0
   25.8990   17.3640   12.8850 N   0  0  0  0  0  0  0  0  0  0  0  0
   25.6450   18.2490   14.0160 C   0  0  1  0  0  0  0  0  0  0  0  0
   26.1770   17.6860   15.3290 C   0  0  0  0  0  0  0  0  0  0  0  0
   25.7960   18.6180   16.4700 C   0  0  0  0  0  0  0  0  0  0  0  0
   26.2920   20.0220   16.2160 C   0  0  0  0  0  0  0  0  0  0  0  0
   26.6870   20.7530   17.1190 O   0  0  0  0  0  0  0  0  0  0  0  0
   26.2620   20.4580   14.9150 N   0  0  0  0  0  0  0  0  0  0  0  0
   26.2330   19.6540   13.7980 C   0  0  0  0  0  0  0  0  0  0  0  0
   26.6640   20.0690   12.7250 O   0  0  0  0  0  0  0  0  0  0  0  0
   24.9060   16.5560   12.3510 C   0  0  0  0  0  0  0  0  0  0  0  0
   23.8160   16.2930   12.8240 O   0  0  0  0  0  0  0  0  0  0  0  0
   28.9540   10.8560    7.8670 C   0  0  0  0  0  0  0  0  0  0  0  0
   27.8590   10.4230    7.2780 N   0  0  0  0  0  0  0  0  0  0  0  0
   24.8498    9.5653    8.8806 H   0  0  0  0  0  0  0  0  0  0  0  0
   23.8505    9.4962    7.3895 H   0  0  0  0  0  0  0  0  0  0  0  0
   25.5122    8.8140    7.3895 H   0  0  0  0  0  0  0  0  0  0  0  0
   25.3961   11.0207    6.2508 H   0  0  0  0  0  0  0  0  0  0  0  0
   24.8015   11.7455    7.8092 H   0  0  0  0  0  0  0  0  0  0  0  0
   26.7514   12.8376    9.2892 H   0  0  0  0  0  0  0  0  0  0  0  0
   30.5778   13.6488    6.6149 H   0  0  0  0  0  0  0  0  0  0  0  0
   27.2208   14.7708    4.3941 H   0  0  0  0  0  0  0  0  0  0  0  0
   25.1265   14.0925    8.3400 H   0  0  0  0  0  0  0  0  0  0  0  0
   23.8313   14.7381   10.3876 H   0  0  0  0  0  0  0  0  0  0  0  0
   28.3942   16.6967    9.5520 H   0  0  0  0  0  0  0  0  0  0  0  0
   27.9702   17.2568   12.4449 H   0  0  0  0  0  0  0  0  0  0  0  0
   27.1569   18.5724   11.6314 H   0  0  0  0  0  0  0  0  0  0  0  0
   24.5497   18.3252   14.0836 H   0  0  0  0  0  0  0  0  0  0  0  0
   25.7404   16.6920   15.5057 H   0  0  0  0  0  0  0  0  0  0  0  0
   27.2723   17.6001   15.2749 H   0  0  0  0  0  0  0  0  0  0  0  0
   24.7005   18.6365   16.5679 H   0  0  0  0  0  0  0  0  0  0  0  0
   26.2613   18.2457   17.3946 H   0  0  0  0  0  0  0  0  0  0  0  0
   26.2611   21.4764   14.7608 H   0  0  0  0  0  0  0  0  0  0  0  0
   29.9686   10.4880    7.6544 H   0  0  0  0  0  0  0  0  0  0  0  0
  1  2  1  0
  2  3  1  0
  3  4  2  0
  4  5  1  0
  5  6  1  0
  6  7  2  0
  6  8  2  0
  6  9  1  0
  9 10  1  0
 10 11  2  0
 11 12  1  0
 12 13  2  0
 13 14  1  0
 14 15  2  0
 15 16  1  0
 16 17  2  0
 17 18  1  0
 18 19  2  0
 19 20  1  0
 20 21  2  0
 20 22  1  0
 22 23  1  0
 23 24  1  0
 24 25  1  0
 25 26  1  0
 26 27  1  0
 27 28  2  0
 27 29  1  0
 29 30  1  0
 30 31  2  0
 23 32  1  0
 32 33  2  0
  5 34  1  0
 34 35  2  0
 35  3  1  0
 15 10  1  0
 21 16  1  0
 30 24  1  0
 32 19  1  0
  1 36  1  0
  1 37  1  0
  1 38  1  0
  2 39  1  0
  2 40  1  0
  4 41  1  0
 11 42  1  0
 13 43  1  0
 17 44  1  0
 18 45  1  0
 21 46  1  0
 22 47  1  0
 22 48  1  0
 24 49  1  1
 25 50  1  0
 25 51  1  0
 26 52  1  0
 26 53  1  0
 29 54  1  0
 34 55  1  0
M  END
>  <meeko>  (783) 
{"is_sidechain": [true], "free_energy": -11.48, "intermolecular_energy": 0.0, "internal_energy": -11.48, "cluster_size": 9, "cluster_id": 1, "rank_in_cluster": 1}

>  <_RMSD_MCS_to_ref>  (783) 
1.3663863405270658

$$$$
ligand
     RDKit          3D

 53 57  0  0  0  0  0  0  0  0999 V2000
   24.8710    9.6160    7.7820 C   0  0  0  0  0  0  0  0  0  0  0  0
   25.4240   10.9650    7.3490 C   0  0  0  0  0  0  0  0  0  0  0  0
   26.8050   11.1940    7.8530 C   0  0  0  0  0  0  0  0  0  0  0  0
   27.2120   11.7620    9.0440 C   0  0  0  0  0  0  0  0  0  0  0  0
   28.5760   11.6910    9.0000 N   0  0  0  0  0  0  0  0  0  0  0  0
   29.6360   12.4360   10.0780 S   0  0  0  0  0  6  0  0  0  0  0  0
   30.9000   11.7480    9.8890 O   0  0  0  0  0  0  0  0  0  0  0  0
   28.9430   12.4110   11.3540 O   0  0  0  0  0  0  0  0  0  0  0  0
   29.7800   13.9780    9.5730 O   0  0  0  0  0  0  0  0  0  0  0  0
   28.7080   14.7300    9.1700 C   0  0  0  0  0  0  0  0  0  0  0  0
   28.2440   15.6490   10.1050 C   0  0  0  0  0  0  0  0  0  0  0  0
   27.1490   16.4950    9.8260 C   0  0  0  0  0  0  0  0  0  0  0  0
   26.7500   17.4230   10.8770 C   0  0  0  0  0  0  0  0  0  0  0  0
   25.7840   17.2510   11.8420 C   0  0  0  0  0  0  0  0  0  0  0  0
   25.8010   18.4160   12.5470 N   0  0  0  0  0  0  0  0  0  0  0  0
   25.0230   18.7490   13.7230 C   0  0  1  0  0  0  0  0  0  0  0  0
   25.3930   17.9320   14.9620 C   0  0  0  0  0  0  0  0  0  0  0  0
   26.6870   18.4100   15.6070 C   0  0  0  0  0  0  0  0  0  0  0  0
   26.6680   19.8970   15.8610 C   0  0  0  0  0  0  0  0  0  0  0  0
   27.2940   20.4150   16.7810 O   0  0  0  0  0  0  0  0  0  0  0  0
   25.9300   20.6600   14.9920 N   0  0  0  0  0  0  0  0  0  0  0  0
   25.0790   20.2360   14.0010 C   0  0  0  0  0  0  0  0  0  0  0  0
   24.3920   21.0470   13.3790 O   0  0  0  0  0  0  0  0  0  0  0  0
   26.7060   19.2750   12.0470 N   0  0  0  0  0  0  0  0  0  0  0  0
   27.2910   18.6800   11.0170 N   0  0  0  0  0  0  0  0  0  0  0  0
   26.4830   16.4160    8.5870 C   0  0  0  0  0  0  0  0  0  0  0  0
   25.4110   17.1880    8.2780 N   0  0  0  0  0  0  0  0  0  0  0  0
   24.8180   17.0540    7.0710 C   0  0  0  0  0  0  0  0  0  0  0  0
   25.2390   16.1660    6.1070 C   0  0  0  0  0  0  0  0  0  0  0  0
   26.3300   15.3650    6.4040 C   0  0  0  0  0  0  0  0  0  0  0  0
   26.9700   15.4720    7.6480 C   0  0  0  0  0  0  0  0  0  0  0  0
   28.0690   14.6450    7.9400 C   0  0  0  0  0  0  0  0  0  0  0  0
   28.9550   11.1830    7.8000 C   0  0  0  0  0  0  0  0  0  0  0  0
   27.9010   10.8440    7.0890 N   0  0  0  0  0  0  0  0  0  0  0  0
   24.8497    9.5640    8.8806 H   0  0  0  0  0  0  0  0  0  0  0  0
   23.8507    9.4948    7.3893 H   0  0  0  0  0  0  0  0  0  0  0  0
   25.5127    8.8135    7.3893 H   0  0  0  0  0  0  0  0  0  0  0  0
   25.4366   11.0065    6.2499 H   0  0  0  0  0  0  0  0  0  0  0  0
   24.7761   11.7471    7.7716 H   0  0  0  0  0  0  0  0  0  0  0  0
   26.5823   12.1767    9.8449 H   0  0  0  0  0  0  0  0  0  0  0  0
   28.7413   15.7182   11.0837 H   0  0  0  0  0  0  0  0  0  0  0  0
   25.1435   16.3720   12.0065 H   0  0  0  0  0  0  0  0  0  0  0  0
   23.9842   18.4710   13.4913 H   0  0  0  0  0  0  0  0  0  0  0  0
   24.5793   18.0171   15.6973 H   0  0  0  0  0  0  0  0  0  0  0  0
   25.5416   16.8894   14.6443 H   0  0  0  0  0  0  0  0  0  0  0  0
   26.8224   17.8865   16.5649 H   0  0  0  0  0  0  0  0  0  0  0  0
   27.5153   18.1906   14.9172 H   0  0  0  0  0  0  0  0  0  0  0  0
   26.0264   21.6802   15.0960 H   0  0  0  0  0  0  0  0  0  0  0  0
   23.9496   17.6907    6.8461 H   0  0  0  0  0  0  0  0  0  0  0  0
   24.7276   16.0948    5.1357 H   0  0  0  0  0  0  0  0  0  0  0  0
   26.6962   14.6416    5.6607 H   0  0  0  0  0  0  0  0  0  0  0  0
   28.4253   13.9252    7.1884 H   0  0  0  0  0  0  0  0  0  0  0  0
   29.9977   11.0704    7.4681 H   0  0  0  0  0  0  0  0  0  0  0  0
  1  2  1  0
  2  3  1  0
  3  4  2  0
  4  5  1  0
  5  6  1  0
  6  7  2  0
  6  8  2  0
  6  9  1  0
  9 10  1  0
 10 11  2  0
 11 12  1  0
 12 13  1  0
 13 14  2  0
 14 15  1  0
 15 16  1  0
 16 17  1  0
 17 18  1  0
 18 19  1  0
 19 20  2  0
 19 21  1  0
 21 22  1  0
 22 23  2  0
 15 24  1  0
 24 25  2  0
 12 26  2  0
 26 27  1  0
 27 28  2  0
 28 29  1  0
 29 30  2  0
 30 31  1  0
 31 32  2  0
  5 33  1  0
 33 34  2  0
 34  3  1  0
 32 10  1  0
 25 13  1  0
 31 26  1  0
 22 16  1  0
  1 35  1  0
  1 36  1  0
  1 37  1  0
  2 38  1  0
  2 39  1  0
  4 40  1  0
 11 41  1  0
 14 42  1  0
 16 43  1  6
 17 44  1  0
 17 45  1  0
 18 46  1  0
 18 47  1  0
 21 48  1  0
 28 49  1  0
 29 50  1  0
 30 51  1  0
 32 52  1  0
 33 53  1  0
M  END
>  <meeko>  (784) 
{"is_sidechain": [true], "free_energy": -11.48, "intermolecular_energy": 0.0, "internal_energy": -11.48, "cluster_size": 17, "cluster_id": 1, "rank_in_cluster": 1}

>  <_RMSD_MCS_to_ref>  (784) 
0.9526706904510309

$$$$
ligand
     RDKit          3D

 62 66  0  0  0  0  0  0  0  0999 V2000
   24.8540    9.4020    7.6050 C   0  0  0  0  0  0  0  0  0  0  0  0
   25.5230   10.7550    7.4270 C   0  0  0  0  0  0  0  0  0  0  0  0
   25.3160   11.3090    6.0610 C   0  0  0  0  0  0  0  0  0  0  0  0
   24.7700   12.5210    5.6880 C   0  0  0  0  0  0  0  0  0  0  0  0
   24.7930   12.4940    4.3230 N   0  0  0  0  0  0  0  0  0  0  0  0
   24.4900   13.8020    3.3000 S   0  0  0  0  0  6  0  0  0  0  0  0
   25.4420   13.6140    2.2190 O   0  0  0  0  0  0  0  0  0  0  0  0
   23.0600   13.7340    3.0480 O   0  0  0  0  0  0  0  0  0  0  0  0
   24.8490   15.2860    4.1490 C   0  0  0  0  0  0  0  0  0  0  0  0
   24.0380   16.4900    4.0330 C   0  0  0  0  0  0  0  0  0  0  0  0
   24.3610   17.6150    4.6910 C   0  0  0  0  0  0  0  0  0  0  0  0
   25.5690   17.6550    5.5570 C   0  0  0  0  0  0  0  0  0  0  0  0
   25.8660   18.6670    6.1850 O   0  0  0  0  0  0  0  0  0  0  0  0
   26.2860   16.4830    5.6070 N   0  0  0  0  0  0  0  0  0  0  0  0
   25.9470   15.3240    4.9270 C   0  0  0  0  0  0  0  0  0  0  0  0
   26.9870   14.2700    5.2040 C   0  0  0  0  0  0  0  0  0  0  0  0
   28.1800   15.1070    5.6780 C   0  0  0  0  0  0  0  0  0  0  0  0
   27.5440   16.3270    6.3470 C   0  0  2  0  0  0  0  0  0  0  0  0
   27.2790   16.1290    7.8560 C   0  0  0  0  0  0  0  0  0  0  0  0
   27.6190   15.1030    8.4390 O   0  0  0  0  0  0  0  0  0  0  0  0
   26.6690   17.2310    8.4360 N   0  0  0  0  0  0  0  0  0  0  0  0
   26.3100   17.4160    9.7840 C   0  0  0  0  0  0  0  0  0  0  0  0
   25.2780   16.7300   10.4210 C   0  0  0  0  0  0  0  0  0  0  0  0
   24.9890   16.9730   11.7690 C   0  0  0  0  0  0  0  0  0  0  0  0
   25.7290   17.9080   12.5090 C   0  0  0  0  0  0  0  0  0  0  0  0
   25.4130   18.2000   13.9660 C   0  0  1  0  0  0  0  0  0  0  0  0
   26.3020   17.3540   14.8850 C   0  0  0  0  0  0  0  0  0  0  0  0
   25.9460   17.6250   16.3380 C   0  0  0  0  0  0  0  0  0  0  0  0
   26.0750   19.0930   16.6620 C   0  0  0  0  0  0  0  0  0  0  0  0
   26.2600   19.4980   17.8060 O   0  0  0  0  0  0  0  0  0  0  0  0
   25.9020   19.9660   15.6180 N   0  0  0  0  0  0  0  0  0  0  0  0
   25.5270   19.6810   14.3260 C   0  0  0  0  0  0  0  0  0  0  0  0
   25.2400   20.5980   13.5600 O   0  0  0  0  0  0  0  0  0  0  0  0
   26.7660   18.5930   11.8640 C   0  0  0  0  0  0  0  0  0  0  0  0
   27.0540   18.3470   10.5180 C   0  0  0  0  0  0  0  0  0  0  0  0
   25.3730   11.3370    3.9100 C   0  0  0  0  0  0  0  0  0  0  0  0
   25.7050   10.5950    4.9450 N   0  0  0  0  0  0  0  0  0  0  0  0
   24.7464    9.1845    8.6779 H   0  0  0  0  0  0  0  0  0  0  0  0
   23.8606    9.4192    7.1330 H   0  0  0  0  0  0  0  0  0  0  0  0
   25.4708    8.6230    7.1330 H   0  0  0  0  0  0  0  0  0  0  0  0
   25.1026   11.4575    8.1617 H   0  0  0  0  0  0  0  0  0  0  0  0
   26.6044   10.6194    7.5762 H   0  0  0  0  0  0  0  0  0  0  0  0
   24.4007   13.3251    6.3415 H   0  0  0  0  0  0  0  0  0  0  0  0
   23.1430   16.4776    3.3936 H   0  0  0  0  0  0  0  0  0  0  0  0
   23.7298   18.5101    4.5890 H   0  0  0  0  0  0  0  0  0  0  0  0
   26.6512   13.5750    5.9877 H   0  0  0  0  0  0  0  0  0  0  0  0
   27.2121   13.6336    4.3355 H   0  0  0  0  0  0  0  0  0  0  0  0
   28.7908   14.5422    6.3976 H   0  0  0  0  0  0  0  0  0  0  0  0
   28.8535   15.3834    4.8534 H   0  0  0  0  0  0  0  0  0  0  0  0
   28.2025   17.2073    6.3090 H   0  0  0  0  0  0  0  0  0  0  0  0
   26.4514   18.0119    7.8006 H   0  0  0  0  0  0  0  0  0  0  0  0
   24.6858   15.9918    9.8603 H   0  0  0  0  0  0  0  0  0  0  0  0
   24.1699   16.4230   12.2553 H   0  0  0  0  0  0  0  0  0  0  0  0
   24.3588   17.9250   14.1177 H   0  0  0  0  0  0  0  0  0  0  0  0
   26.1461   16.2879   14.6636 H   0  0  0  0  0  0  0  0  0  0  0  0
   27.3561   17.6178   14.7140 H   0  0  0  0  0  0  0  0  0  0  0  0
   24.9089   17.3064   16.5196 H   0  0  0  0  0  0  0  0  0  0  0  0
   26.6402   17.0624   16.9795 H   0  0  0  0  0  0  0  0  0  0  0  0
   26.0746   20.9594   15.8282 H   0  0  0  0  0  0  0  0  0  0  0  0
   27.3600   19.3320   12.4217 H   0  0  0  0  0  0  0  0  0  0  0  0
   27.8755   18.8919   10.0299 H   0  0  0  0  0  0  0  0  0  0  0  0
   25.5414   11.0596    2.8590 H   0  0  0  0  0  0  0  0  0  0  0  0
  1  2  1  0
  2  3  1  0
  3  4  2  0
  4  5  1  0
  5  6  1  0
  6  7  2  0
  6  8  2  0
  6  9  1  0
  9 10  1  0
 10 11  2  0
 11 12  1  0
 12 13  2  0
 12 14  1  0
 14 15  1  0
 15 16  1  0
 16 17  1  0
 17 18  1  0
 18 19  1  0
 19 20  2  0
 19 21  1  0
 21 22  1  0
 22 23  2  0
 23 24  1  0
 24 25  2  0
 25 26  1  0
 26 27  1  0
 27 28  1  0
 28 29  1  0
 29 30  2  0
 29 31  1  0
 31 32  1  0
 32 33  2  0
 25 34  1  0
 34 35  2  0
  5 36  1  0
 36 37  2  0
 37  3  1  0
 15  9  2  0
 35 22  1  0
 18 14  1  0
 32 26  1  0
  1 38  1  0
  1 39  1  0
  1 40  1  0
  2 41  1  0
  2 42  1  0
  4 43  1  0
 10 44  1  0
 11 45  1  0
 16 46  1  0
 16 47  1  0
 17 48  1  0
 17 49  1  0
 18 50  1  1
 21 51  1  0
 23 52  1  0
 24 53  1  0
 26 54  1  6
 27 55  1  0
 27 56  1  0
 28 57  1  0
 28 58  1  0
 31 59  1  0
 34 60  1  0
 35 61  1  0
 36 62  1  0
M  END
>  <meeko>  (785) 
{"is_sidechain": [true], "free_energy": -11.47, "intermolecular_energy": 0.0, "internal_energy": -11.47, "cluster_size": 20, "cluster_id": 1, "rank_in_cluster": 1}

>  <_RMSD_MCS_to_ref>  (785) 
1.0322875689457842

$$$$
ligand
     RDKit          3D

 48 51  0  0  0  0  0  0  0  0999 V2000
   24.8710    9.6160    7.7820 C   0  0  0  0  0  0  0  0  0  0  0  0
   25.4240   10.9650    7.3490 C   0  0  0  0  0  0  0  0  0  0  0  0
   26.7940   11.2060    7.8800 C   0  0  0  0  0  0  0  0  0  0  0  0
   27.1850   11.9590    8.9700 C   0  0  0  0  0  0  0  0  0  0  0  0
   28.5400   11.8020    9.0150 N   0  0  0  0  0  0  0  0  0  0  0  0
   29.5980   12.6810    9.9880 S   0  0  0  0  0  6  0  0  0  0  0  0
   29.1990   12.3800   11.3490 O   0  0  0  0  0  0  0  0  0  0  0  0
   30.9230   12.3600    9.4940 O   0  0  0  0  0  0  0  0  0  0  0  0
   29.2970   14.2520    9.6910 O   0  0  0  0  0  0  0  0  0  0  0  0
   28.0250   14.7520    9.4750 C   0  0  0  0  0  0  0  0  0  0  0  0
   27.3230   14.7150    8.1530 C   0  0  0  0  0  0  0  0  0  0  0  0
   26.1360   15.1700    7.8960 N   0  0  0  0  0  0  0  0  0  0  0  0
   25.5330   15.7140    8.9710 N   0  0  0  0  0  0  0  0  0  0  0  0
   24.3010   16.2260    8.8570 N   0  0  0  0  0  0  0  0  0  0  0  0
   24.0210   16.6710   10.0830 C   0  0  0  0  0  0  0  0  0  0  0  0
   25.0640   16.4450   11.0120 C   0  0  0  0  0  0  0  0  0  0  0  0
   25.1530   16.7760   12.4230 C   0  0  0  0  0  0  0  0  0  0  0  0
   25.0520   15.9320   13.3080 O   0  0  0  0  0  0  0  0  0  0  0  0
   25.3470   18.1080   12.7100 N   0  0  0  0  0  0  0  0  0  0  0  0
   25.3140   18.6020   14.0790 C   0  0  1  0  0  0  0  0  0  0  0  0
   26.3300   17.9000   14.9730 C   0  0  0  0  0  0  0  0  0  0  0  0
   26.2700   18.4960   16.3730 C   0  0  0  0  0  0  0  0  0  0  0  0
   26.4830   19.9910   16.3420 C   0  0  0  0  0  0  0  0  0  0  0  0
   27.0570   20.5930   17.2450 O   0  0  0  0  0  0  0  0  0  0  0  0
   25.9720   20.6620   15.2610 N   0  0  0  0  0  0  0  0  0  0  0  0
   25.6240   20.1010   14.0580 C   0  0  0  0  0  0  0  0  0  0  0  0
   25.5590   20.7760   13.0300 O   0  0  0  0  0  0  0  0  0  0  0  0
   26.0390   15.8220   10.2480 C   0  0  0  0  0  0  0  0  0  0  0  0
   27.3400   15.3120   10.4820 C   0  0  0  0  0  0  0  0  0  0  0  0
   28.9390   11.0590    7.9510 C   0  0  0  0  0  0  0  0  0  0  0  0
   27.8970   10.6620    7.2520 N   0  0  0  0  0  0  0  0  0  0  0  0
   24.8497    9.5640    8.8806 H   0  0  0  0  0  0  0  0  0  0  0  0
   23.8507    9.4948    7.3893 H   0  0  0  0  0  0  0  0  0  0  0  0
   25.5127    8.8135    7.3893 H   0  0  0  0  0  0  0  0  0  0  0  0
   25.4588   10.9977    6.2500 H   0  0  0  0  0  0  0  0  0  0  0  0
   24.7628   11.7467    7.7511 H   0  0  0  0  0  0  0  0  0  0  0  0
   26.5499   12.5497    9.6466 H   0  0  0  0  0  0  0  0  0  0  0  0
   27.8689   14.2558    7.3156 H   0  0  0  0  0  0  0  0  0  0  0  0
   23.0736   17.1645   10.3456 H   0  0  0  0  0  0  0  0  0  0  0  0
   25.5192   18.7696   11.9396 H   0  0  0  0  0  0  0  0  0  0  0  0
   24.3142   18.4008   14.4913 H   0  0  0  0  0  0  0  0  0  0  0  0
   26.0962   16.8262   15.0211 H   0  0  0  0  0  0  0  0  0  0  0  0
   27.3398   18.0367   14.5588 H   0  0  0  0  0  0  0  0  0  0  0  0
   25.2836   18.2835   16.8110 H   0  0  0  0  0  0  0  0  0  0  0  0
   27.0697   18.0436   16.9778 H   0  0  0  0  0  0  0  0  0  0  0  0
   25.8373   21.6783   15.3609 H   0  0  0  0  0  0  0  0  0  0  0  0
   27.7860   15.3753   11.4856 H   0  0  0  0  0  0  0  0  0  0  0  0
   29.9853   10.8223    7.7076 H   0  0  0  0  0  0  0  0  0  0  0  0
  1  2  1  0
  2  3  1  0
  3  4  2  0
  4  5  1  0
  5  6  1  0
  6  7  2  0
  6  8  2  0
  6  9  1  0
  9 10  1  0
 10 11  1  0
 11 12  2  0
 12 13  1  0
 13 14  1  0
 14 15  2  0
 15 16  1  0
 16 17  1  0
 17 18  2  0
 17 19  1  0
 19 20  1  0
 20 21  1  0
 21 22  1  0
 22 23  1  0
 23 24  2  0
 23 25  1  0
 25 26  1  0
 26 27  2  0
 16 28  2  0
 28 29  1  0
  5 30  1  0
 30 31  2  0
 31  3  1  0
 29 10  2  0
 28 13  1  0
 26 20  1  0
  1 32  1  0
  1 33  1  0
  1 34  1  0
  2 35  1  0
  2 36  1  0
  4 37  1  0
 11 38  1  0
 15 39  1  0
 19 40  1  0
 20 41  1  1
 21 42  1  0
 21 43  1  0
 22 44  1  0
 22 45  1  0
 25 46  1  0
 29 47  1  0
 30 48  1  0
M  END
>  <meeko>  (786) 
{"is_sidechain": [true], "free_energy": -11.47, "intermolecular_energy": 0.0, "internal_energy": -11.47, "cluster_size": 17, "cluster_id": 1, "rank_in_cluster": 1}

>  <_RMSD_MCS_to_ref>  (786) 
0.7850210895963947

$$$$
ligand
     RDKit          3D

 56 60  0  0  0  0  0  0  0  0999 V2000
   24.8540    9.4020    7.6050 C   0  0  0  0  0  0  0  0  0  0  0  0
   25.5230   10.7550    7.4270 C   0  0  0  0  0  0  0  0  0  0  0  0
   25.2460   11.3490    6.0910 C   0  0  0  0  0  0  0  0  0  0  0  0
   24.6810   12.5720    5.7830 C   0  0  0  0  0  0  0  0  0  0  0  0
   24.6380   12.5860    4.4180 N   0  0  0  0  0  0  0  0  0  0  0  0
   24.2690   13.9200    3.4600 S   0  0  0  0  0  6  0  0  0  0  0  0
   22.8590   13.7840    3.1490 O   0  0  0  0  0  0  0  0  0  0  0  0
   25.2730   13.9270    2.4090 O   0  0  0  0  0  0  0  0  0  0  0  0
   24.4750   15.2400    4.4040 O   0  0  0  0  0  0  0  0  0  0  0  0
   25.3360   15.2870    5.4220 C   0  0  0  0  0  0  0  0  0  0  0  0
   26.7150   15.1820    5.3030 N   0  0  0  0  0  0  0  0  0  0  0  0
   27.3770   15.2490    6.4880 N   0  0  0  0  0  0  0  0  0  0  0  0
   26.3820   15.3870    7.3550 C   0  0  0  0  0  0  0  0  0  0  0  0
   25.1240   15.4100    6.7660 C   0  0  0  0  0  0  0  0  0  0  0  0
   24.0580   15.5550    7.7610 C   0  0  0  0  0  0  0  0  0  0  0  0
   24.8480   15.6430    9.0140 N   0  0  0  0  0  0  0  0  0  0  0  0
   24.1850   15.6000   10.2230 C   0  0  0  0  0  0  0  0  0  0  0  0
   23.2020   14.8910   10.4230 O   0  0  0  0  0  0  0  0  0  0  0  0
   24.6940   16.4220   11.3390 C   0  0  0  0  0  0  0  0  0  0  0  0
   24.0050   16.4150   12.5500 C   0  0  0  0  0  0  0  0  0  0  0  0
   24.4610   17.1980   13.6170 C   0  0  0  0  0  0  0  0  0  0  0  0
   25.6030   18.0080   13.4940 C   0  0  0  0  0  0  0  0  0  0  0  0
   26.0650   18.8190   14.5860 N   0  0  0  0  0  0  0  0  0  0  0  0
   26.8650   18.2140   15.6470 C   0  0  0  0  0  0  0  0  0  0  0  0
   26.5340   18.8260   16.9920 C   0  0  0  0  0  0  0  0  0  0  0  0
   26.6790   20.3140   16.9050 C   0  0  0  0  0  0  0  0  0  0  0  0
   26.8880   21.0140   17.8920 O   0  0  0  0  0  0  0  0  0  0  0  0
   26.4770   20.8570   15.6690 N   0  0  0  0  0  0  0  0  0  0  0  0
   25.9680   20.2160   14.5640 C   0  0  0  0  0  0  0  0  0  0  0  0
   25.4910   20.9040   13.6650 O   0  0  0  0  0  0  0  0  0  0  0  0
   26.2620   18.0170   12.2530 C   0  0  0  0  0  0  0  0  0  0  0  0
   25.8120   17.2400   11.1800 C   0  0  0  0  0  0  0  0  0  0  0  0
   26.3260   15.5250    8.8190 C   0  0  0  0  0  0  0  0  0  0  0  0
   25.2270   11.4600    3.9420 C   0  0  0  0  0  0  0  0  0  0  0  0
   25.5840   10.6720    4.9350 N   0  0  0  0  0  0  0  0  0  0  0  0
   24.7464    9.1845    8.6779 H   0  0  0  0  0  0  0  0  0  0  0  0
   23.8606    9.4192    7.1330 H   0  0  0  0  0  0  0  0  0  0  0  0
   25.4708    8.6230    7.1330 H   0  0  0  0  0  0  0  0  0  0  0  0
   25.1496   11.4394    8.2030 H   0  0  0  0  0  0  0  0  0  0  0  0
   26.6098   10.6075    7.5116 H   0  0  0  0  0  0  0  0  0  0  0  0
   24.3433   13.3549    6.4780 H   0  0  0  0  0  0  0  0  0  0  0  0
   27.1933   15.0640    4.3984 H   0  0  0  0  0  0  0  0  0  0  0  0
   23.4682   16.4678    7.5907 H   0  0  0  0  0  0  0  0  0  0  0  0
   23.3151   14.7439    7.7501 H   0  0  0  0  0  0  0  0  0  0  0  0
   23.1040   15.7950   12.6674 H   0  0  0  0  0  0  0  0  0  0  0  0
   23.9143   17.1790   14.5713 H   0  0  0  0  0  0  0  0  0  0  0  0
   26.6581   17.1342   15.6824 H   0  0  0  0  0  0  0  0  0  0  0  0
   27.9282   18.3957   15.4313 H   0  0  0  0  0  0  0  0  0  0  0  0
   25.4995   18.5726   17.2669 H   0  0  0  0  0  0  0  0  0  0  0  0
   27.2200   18.4319   17.7562 H   0  0  0  0  0  0  0  0  0  0  0  0
   26.7319   21.8481   15.5521 H   0  0  0  0  0  0  0  0  0  0  0  0
   27.1523   18.6496   12.1221 H   0  0  0  0  0  0  0  0  0  0  0  0
   26.3382   17.2743   10.2146 H   0  0  0  0  0  0  0  0  0  0  0  0
   26.8562   16.4247    9.1645 H   0  0  0  0  0  0  0  0  0  0  0  0
   26.8028   14.7073    9.3794 H   0  0  0  0  0  0  0  0  0  0  0  0
   25.3842   11.2368    2.8764 H   0  0  0  0  0  0  0  0  0  0  0  0
  1  2  1  0
  2  3  1  0
  3  4  2  0
  4  5  1  0
  5  6  1  0
  6  7  2  0
  6  8  2  0
  6  9  1  0
  9 10  1  0
 10 11  1  0
 11 12  1  0
 12 13  2  0
 13 14  1  0
 14 15  1  0
 15 16  1  0
 16 17  1  0
 17 18  2  0
 17 19  1  0
 19 20  2  0
 20 21  1  0
 21 22  2  0
 22 23  1  0
 23 24  1  0
 24 25  1  0
 25 26  1  0
 26 27  2  0
 26 28  1  0
 28 29  1  0
 29 30  2  0
 22 31  1  0
 31 32  2  0
 16 33  1  0
  5 34  1  0
 34 35  2  0
 35  3  1  0
 14 10  2  0
 32 19  1  0
 33 13  1  0
 29 23  1  0
  1 36  1  0
  1 37  1  0
  1 38  1  0
  2 39  1  0
  2 40  1  0
  4 41  1  0
 11 42  1  0
 15 43  1  0
 15 44  1  0
 20 45  1  0
 21 46  1  0
 24 47  1  0
 24 48  1  0
 25 49  1  0
 25 50  1  0
 28 51  1  0
 31 52  1  0
 32 53  1  0
 33 54  1  0
 33 55  1  0
 34 56  1  0
M  END
>  <meeko>  (787) 
{"is_sidechain": [true], "free_energy": -11.46, "intermolecular_energy": 0.0, "internal_energy": -11.46, "cluster_size": 3, "cluster_id": 2, "rank_in_cluster": 1}

>  <_RMSD_MCS_to_ref>  (787) 
0.940007513267845

$$$$
ligand
     RDKit          3D

 60 65  0  0  0  0  0  0  0  0999 V2000
   24.8710    9.6170    7.7820 C   0  0  0  0  0  0  0  0  0  0  0  0
   25.4240   10.9640    7.3490 C   0  0  0  0  0  0  0  0  0  0  0  0
   25.0360   11.3100    5.9540 C   0  0  0  0  0  0  0  0  0  0  0  0
   25.5070   12.3300    5.1500 C   0  0  0  0  0  0  0  0  0  0  0  0
   24.8270   12.1760    3.9750 N   0  0  0  0  0  0  0  0  0  0  0  0
   24.7700   13.3110    2.7240 S   0  0  0  0  0  6  0  0  0  0  0  0
   23.6640   12.8950    1.8830 O   0  0  0  0  0  0  0  0  0  0  0  0
   26.1290   13.3420    2.2140 O   0  0  0  0  0  0  0  0  0  0  0  0
   24.4460   14.7720    3.3920 O   0  0  0  0  0  0  0  0  0  0  0  0
   25.3330   15.2790    4.3150 C   0  0  0  0  0  0  0  0  0  0  0  0
   24.9640   15.2860    5.6660 C   0  0  0  0  0  0  0  0  0  0  0  0
   25.8080   15.8210    6.6510 C   0  0  0  0  0  0  0  0  0  0  0  0
   25.3470   15.9070    8.0440 C   0  0  0  0  0  0  0  0  0  0  0  0
   24.2470   15.1370    8.4920 C   0  0  0  0  0  0  0  0  0  0  0  0
   23.7890   15.2240    9.8100 C   0  0  0  0  0  0  0  0  0  0  0  0
   24.4560   16.0830   10.6600 C   0  0  0  0  0  0  0  0  0  0  0  0
   25.5430   16.8490   10.2510 C   0  0  0  0  0  0  0  0  0  0  0  0
   25.9980   16.7730    8.9460 C   0  0  0  0  0  0  0  0  0  0  0  0
   26.0330   17.6880   11.3810 C   0  0  0  0  0  0  0  0  0  0  0  0
   25.1910   17.2540   12.4890 N   0  0  0  0  0  0  0  0  0  0  0  0
   25.1730   17.9830   13.7530 C   0  0  2  0  0  0  0  0  0  0  0  0
   25.8420   19.3550   13.6840 C   0  0  0  0  0  0  0  0  0  0  0  0
   25.7100   20.0470   15.0310 C   0  0  0  0  0  0  0  0  0  0  0  0
   26.2990   19.2060   16.1390 C   0  0  0  0  0  0  0  0  0  0  0  0
   26.6820   19.6940   17.2000 O   0  0  0  0  0  0  0  0  0  0  0  0
   26.3100   17.8480   15.9440 N   0  0  0  0  0  0  0  0  0  0  0  0
   25.7810   17.1420   14.8870 C   0  0  0  0  0  0  0  0  0  0  0  0
   25.7180   15.9130   14.9310 O   0  0  0  0  0  0  0  0  0  0  0  0
   24.1940   16.3850   12.0710 C   0  0  0  0  0  0  0  0  0  0  0  0
   23.2540   15.9470   12.7070 O   0  0  0  0  0  0  0  0  0  0  0  0
   27.0790   16.3050    6.2880 C   0  0  0  0  0  0  0  0  0  0  0  0
   27.4440   16.2450    4.9360 C   0  0  0  0  0  0  0  0  0  0  0  0
   28.5880   16.6230    4.2840 N   0  0  0  0  0  0  0  0  0  0  0  0
   28.5580   16.4100    2.9570 N   0  0  0  0  0  0  0  0  0  0  0  0
   27.3480   15.8830    2.7520 C   0  0  0  0  0  0  0  0  0  0  0  0
   26.6040   15.7480    3.9460 C   0  0  0  0  0  0  0  0  0  0  0  0
   23.9550   11.1400    4.1010 C   0  0  0  0  0  0  0  0  0  0  0  0
   24.0630   10.5870    5.2930 N   0  0  0  0  0  0  0  0  0  0  0  0
   24.8498    9.5653    8.8806 H   0  0  0  0  0  0  0  0  0  0  0  0
   23.8505    9.4962    7.3895 H   0  0  0  0  0  0  0  0  0  0  0  0
   25.5122    8.8140    7.3895 H   0  0  0  0  0  0  0  0  0  0  0  0
   25.0379   11.7397    8.0267 H   0  0  0  0  0  0  0  0  0  0  0  0
   26.5218   10.9068    7.3895 H   0  0  0  0  0  0  0  0  0  0  0  0
   26.2590   13.0931    5.3993 H   0  0  0  0  0  0  0  0  0  0  0  0
   23.9923   14.8633    5.9611 H   0  0  0  0  0  0  0  0  0  0  0  0
   23.7428   14.4570    7.7895 H   0  0  0  0  0  0  0  0  0  0  0  0
   22.9300   14.6306   10.1564 H   0  0  0  0  0  0  0  0  0  0  0  0
   26.8550   17.3794    8.6175 H   0  0  0  0  0  0  0  0  0  0  0  0
   27.0952   17.4921   11.5893 H   0  0  0  0  0  0  0  0  0  0  0  0
   25.9714   18.7681   11.1822 H   0  0  0  0  0  0  0  0  0  0  0  0
   24.1111   18.1698   13.9710 H   0  0  0  0  0  0  0  0  0  0  0  0
   26.9068   19.2325   13.4367 H   0  0  0  0  0  0  0  0  0  0  0  0
   25.3550   19.9637   12.9079 H   0  0  0  0  0  0  0  0  0  0  0  0
   26.2391   21.0106   14.9924 H   0  0  0  0  0  0  0  0  0  0  0  0
   24.6409   20.1988   15.2406 H   0  0  0  0  0  0  0  0  0  0  0  0
   26.7696   17.2891   16.6770 H   0  0  0  0  0  0  0  0  0  0  0  0
   27.7649   16.7178    7.0424 H   0  0  0  0  0  0  0  0  0  0  0  0
   29.3992   17.0340    4.7677 H   0  0  0  0  0  0  0  0  0  0  0  0
   26.9716   15.5864    1.7619 H   0  0  0  0  0  0  0  0  0  0  0  0
   23.2570   10.8095    3.3177 H   0  0  0  0  0  0  0  0  0  0  0  0
  1  2  1  0
  2  3  1  0
  3  4  2  0
  4  5  1  0
  5  6  1  0
  6  7  2  0
  6  8  2  0
  6  9  1  0
  9 10  1  0
 10 11  2  0
 11 12  1  0
 12 13  1  0
 13 14  2  0
 14 15  1  0
 15 16  2  0
 16 17  1  0
 17 18  2  0
 17 19  1  0
 19 20  1  0
 20 21  1  0
 21 22  1  0
 22 23  1  0
 23 24  1  0
 24 25  2  0
 24 26  1  0
 26 27  1  0
 27 28  2  0
 20 29  1  0
 29 30  2  0
 12 31  2  0
 31 32  1  0
 32 33  1  0
 33 34  1  0
 34 35  2  0
 35 36  1  0
  5 37  1  0
 37 38  2  0
 38  3  1  0
 36 10  1  0
 18 13  1  0
 27 21  1  0
 36 32  2  0
 29 16  1  0
  1 39  1  0
  1 40  1  0
  1 41  1  0
  2 42  1  0
  2 43  1  0
  4 44  1  0
 11 45  1  0
 14 46  1  0
 15 47  1  0
 18 48  1  0
 19 49  1  0
 19 50  1  0
 21 51  1  1
 22 52  1  0
 22 53  1  0
 23 54  1  0
 23 55  1  0
 26 56  1  0
 31 57  1  0
 33 58  1  0
 35 59  1  0
 37 60  1  0
M  END
>  <meeko>  (788) 
{"is_sidechain": [true], "free_energy": -11.46, "intermolecular_energy": 0.0, "internal_energy": -11.46, "cluster_size": 3, "cluster_id": 2, "rank_in_cluster": 1}

>  <_RMSD_MCS_to_ref>  (788) 
1.8000044590588047

$$$$
ligand
     RDKit          3D

 55 59  0  0  0  0  0  0  0  0999 V2000
   24.8540    9.4020    7.6050 C   0  0  0  0  0  0  0  0  0  0  0  0
   25.5230   10.7550    7.4270 C   0  0  0  0  0  0  0  0  0  0  0  0
   25.3190   11.3070    6.0600 C   0  0  0  0  0  0  0  0  0  0  0  0
   26.0470   12.2750    5.3960 C   0  0  0  0  0  0  0  0  0  0  0  0
   25.4170   12.3950    4.1890 N   0  0  0  0  0  0  0  0  0  0  0  0
   25.9030   13.4090    2.9340 S   0  0  0  0  0  6  0  0  0  0  0  0
   27.2990   13.1090    2.6800 O   0  0  0  0  0  0  0  0  0  0  0  0
   24.9050   13.1750    1.9030 O   0  0  0  0  0  0  0  0  0  0  0  0
   25.7420   14.9580    3.4070 O   0  0  0  0  0  0  0  0  0  0  0  0
   25.6180   15.2660    4.7350 C   0  0  0  0  0  0  0  0  0  0  0  0
   26.5680   16.0920    5.2970 C   0  0  0  0  0  0  0  0  0  0  0  0
   26.4310   16.4460    6.6390 C   0  0  0  0  0  0  0  0  0  0  0  0
   25.3450   15.9650    7.3630 C   0  0  0  0  0  0  0  0  0  0  0  0
   25.0930   16.2810    8.7830 C   0  0  0  0  0  0  0  0  0  0  0  0
   23.8830   15.9070    9.4290 C   0  0  0  0  0  0  0  0  0  0  0  0
   23.6420   16.2000   10.7770 C   0  0  0  0  0  0  0  0  0  0  0  0
   24.6240   16.8800   11.4650 C   0  0  0  0  0  0  0  0  0  0  0  0
   25.8180   17.2720   10.8710 C   0  0  0  0  0  0  0  0  0  0  0  0
   26.0630   16.9810    9.5380 C   0  0  0  0  0  0  0  0  0  0  0  0
   26.6810   17.9720   11.8670 C   0  0  0  0  0  0  0  0  0  0  0  0
   25.8260   18.0190   13.0480 N   0  0  0  0  0  0  0  0  0  0  0  0
   26.3080   18.3830   14.3750 C   0  0  2  0  0  0  0  0  0  0  0  0
   25.9270   17.3570   15.4360 C   0  0  0  0  0  0  0  0  0  0  0  0
   26.5390   17.7580   16.7700 C   0  0  0  0  0  0  0  0  0  0  0  0
   26.1240   19.1570   17.1620 C   0  0  0  0  0  0  0  0  0  0  0  0
   25.9260   19.4800   18.3300 O   0  0  0  0  0  0  0  0  0  0  0  0
   25.9960   20.0670   16.1450 N   0  0  0  0  0  0  0  0  0  0  0  0
   25.8030   19.7680   14.8150 C   0  0  0  0  0  0  0  0  0  0  0  0
   25.2560   20.5790   14.0710 O   0  0  0  0  0  0  0  0  0  0  0  0
   24.6450   17.3140   12.8660 C   0  0  0  0  0  0  0  0  0  0  0  0
   23.7760   17.0800   13.6830 O   0  0  0  0  0  0  0  0  0  0  0  0
   24.4320   15.1680    6.7570 N   0  0  0  0  0  0  0  0  0  0  0  0
   24.5680   14.8170    5.4380 N   0  0  0  0  0  0  0  0  0  0  0  0
   24.3830   11.5200    4.1340 C   0  0  0  0  0  0  0  0  0  0  0  0
   24.2870   10.8490    5.2640 N   0  0  0  0  0  0  0  0  0  0  0  0
   24.7464    9.1845    8.6779 H   0  0  0  0  0  0  0  0  0  0  0  0
   23.8606    9.4192    7.1330 H   0  0  0  0  0  0  0  0  0  0  0  0
   25.4708    8.6230    7.1330 H   0  0  0  0  0  0  0  0  0  0  0  0
   25.1006   11.4583    8.1598 H   0  0  0  0  0  0  0  0  0  0  0  0
   26.6040   10.6200    7.5791 H   0  0  0  0  0  0  0  0  0  0  0  0
   26.9303   12.8231    5.7557 H   0  0  0  0  0  0  0  0  0  0  0  0
   27.4145   16.4633    4.7007 H   0  0  0  0  0  0  0  0  0  0  0  0
   27.1742   17.0989    7.1200 H   0  0  0  0  0  0  0  0  0  0  0  0
   23.1136   15.3718    8.8531 H   0  0  0  0  0  0  0  0  0  0  0  0
   22.7048   15.8990   11.2681 H   0  0  0  0  0  0  0  0  0  0  0  0
   27.0079   17.2932    9.0692 H   0  0  0  0  0  0  0  0  0  0  0  0
   27.6014   17.4030   12.0650 H   0  0  0  0  0  0  0  0  0  0  0  0
   27.0214   18.9630   11.5324 H   0  0  0  0  0  0  0  0  0  0  0  0
   27.4042   18.4101   14.2883 H   0  0  0  0  0  0  0  0  0  0  0  0
   24.8319   17.3175   15.5318 H   0  0  0  0  0  0  0  0  0  0  0  0
   26.3045   16.3666   15.1416 H   0  0  0  0  0  0  0  0  0  0  0  0
   26.2033   17.0535   17.5452 H   0  0  0  0  0  0  0  0  0  0  0  0
   27.6344   17.7336   16.6725 H   0  0  0  0  0  0  0  0  0  0  0  0
   26.0489   21.0639   16.3985 H   0  0  0  0  0  0  0  0  0  0  0  0
   23.7177   11.3886    3.2679 H   0  0  0  0  0  0  0  0  0  0  0  0
  1  2  1  0
  2  3  1  0
  3  4  2  0
  4  5  1  0
  5  6  1  0
  6  7  2  0
  6  8  2  0
  6  9  1  0
  9 10  1  0
 10 11  2  0
 11 12  1  0
 12 13  2  0
 13 14  1  0
 14 15  2  0
 15 16  1  0
 16 17  2  0
 17 18  1  0
 18 19  2  0
 18 20  1  0
 20 21  1  0
 21 22  1  0
 22 23  1  0
 23 24  1  0
 24 25  1  0
 25 26  2  0
 25 27  1  0
 27 28  1  0
 28 29  2  0
 21 30  1  0
 30 31  2  0
 13 32  1  0
 32 33  2  0
  5 34  1  0
 34 35  2  0
 35  3  1  0
 33 10  1  0
 19 14  1  0
 28 22  1  0
 30 17  1  0
  1 36  1  0
  1 37  1  0
  1 38  1  0
  2 39  1  0
  2 40  1  0
  4 41  1  0
 11 42  1  0
 12 43  1  0
 15 44  1  0
 16 45  1  0
 19 46  1  0
 20 47  1  0
 20 48  1  0
 22 49  1  6
 23 50  1  0
 23 51  1  0
 24 52  1  0
 24 53  1  0
 27 54  1  0
 34 55  1  0
M  END
>  <meeko>  (789) 
{"is_sidechain": [true], "free_energy": -11.45, "intermolecular_energy": 0.0, "internal_energy": -11.45, "cluster_size": 16, "cluster_id": 1, "rank_in_cluster": 1}

>  <_RMSD_MCS_to_ref>  (789) 
1.1695552811028445

$$$$
ligand
     RDKit          3D

 57 61  0  0  0  0  0  0  0  0999 V2000
   24.8540    9.4020    7.6050 C   0  0  0  0  0  0  0  0  0  0  0  0
   25.5230   10.7550    7.4270 C   0  0  0  0  0  0  0  0  0  0  0  0
   26.9550   10.6280    7.0440 C   0  0  0  0  0  0  0  0  0  0  0  0
   27.5940   11.0850    5.9080 C   0  0  0  0  0  0  0  0  0  0  0  0
   28.8870   10.6680    6.0590 N   0  0  0  0  0  0  0  0  0  0  0  0
   30.1940   11.1430    5.1060 S   0  0  0  0  0  6  0  0  0  0  0  0
   29.7580   10.8980    3.7430 O   0  0  0  0  0  0  0  0  0  0  0  0
   31.3340   10.4500    5.6770 O   0  0  0  0  0  0  0  0  0  0  0  0
   30.3570   12.7460    5.3450 O   0  0  0  0  0  0  0  0  0  0  0  0
   29.6230   13.4340    6.2750 C   0  0  0  0  0  0  0  0  0  0  0  0
   30.0510   13.7680    7.5600 C   0  0  0  0  0  0  0  0  0  0  0  0
   29.2020   14.4690    8.4260 C   0  0  0  0  0  0  0  0  0  0  0  0
   27.9210   14.8510    8.0180 C   0  0  0  0  0  0  0  0  0  0  0  0
   27.4930   14.5280    6.7070 C   0  0  0  0  0  0  0  0  0  0  0  0
   28.3450   13.8110    5.8540 C   0  0  0  0  0  0  0  0  0  0  0  0
   26.0830   14.8760    6.2550 C   0  0  0  0  0  0  0  0  0  0  0  0
   25.5240   16.1560    6.9050 C   0  0  0  0  0  0  0  0  0  0  0  0
   25.8370   16.2030    8.3700 C   0  0  0  0  0  0  0  0  0  0  0  0
   25.0880   16.8430    9.3970 C   0  0  0  0  0  0  0  0  0  0  0  0
   25.6730   16.7060   10.6430 C   0  0  0  0  0  0  0  0  0  0  0  0
   25.1680   17.2380   11.9010 C   0  0  0  0  0  0  0  0  0  0  0  0
   23.9690   17.3230   12.1580 O   0  0  0  0  0  0  0  0  0  0  0  0
   26.1170   17.6600   12.8070 N   0  0  0  0  0  0  0  0  0  0  0  0
   25.7630   18.3540   14.0330 C   0  0  1  0  0  0  0  0  0  0  0  0
   26.5670   17.8540   15.2290 C   0  0  0  0  0  0  0  0  0  0  0  0
   26.1730   18.6420   16.4700 C   0  0  0  0  0  0  0  0  0  0  0  0
   26.3460   20.1270   16.2540 C   0  0  0  0  0  0  0  0  0  0  0  0
   26.6780   20.8890   17.1570 O   0  0  0  0  0  0  0  0  0  0  0  0
   26.0810   20.6010   14.9940 N   0  0  0  0  0  0  0  0  0  0  0  0
   26.0280   19.8500   13.8450 C   0  0  0  0  0  0  0  0  0  0  0  0
   26.1740   20.3710   12.7400 O   0  0  0  0  0  0  0  0  0  0  0  0
   27.1270   15.8020   10.5440 S   0  0  0  0  0  0  0  0  0  0  0  0
   26.9790   15.5970    8.8630 C   0  0  0  0  0  0  0  0  0  0  0  0
   29.0200   10.0670    7.2700 C   0  0  0  0  0  0  0  0  0  0  0  0
   27.8560   10.0030    7.8840 N   0  0  0  0  0  0  0  0  0  0  0  0
   24.7464    9.1845    8.6779 H   0  0  0  0  0  0  0  0  0  0  0  0
   23.8606    9.4192    7.1330 H   0  0  0  0  0  0  0  0  0  0  0  0
   25.4708    8.6230    7.1330 H   0  0  0  0  0  0  0  0  0  0  0  0
   24.9936   11.3110    6.6392 H   0  0  0  0  0  0  0  0  0  0  0  0
   25.4768   11.2838    8.3904 H   0  0  0  0  0  0  0  0  0  0  0  0
   27.1612   11.6546    5.0724 H   0  0  0  0  0  0  0  0  0  0  0  0
   31.0586   13.4799    7.8943 H   0  0  0  0  0  0  0  0  0  0  0  0
   29.5476   14.7218    9.4392 H   0  0  0  0  0  0  0  0  0  0  0  0
   28.0036   13.5428    4.8433 H   0  0  0  0  0  0  0  0  0  0  0  0
   26.0924   15.0158    5.1640 H   0  0  0  0  0  0  0  0  0  0  0  0
   25.4312   14.0461    6.5654 H   0  0  0  0  0  0  0  0  0  0  0  0
   25.9724   17.0325    6.4143 H   0  0  0  0  0  0  0  0  0  0  0  0
   24.4308   16.1590    6.7828 H   0  0  0  0  0  0  0  0  0  0  0  0
   24.1481   17.3863    9.2197 H   0  0  0  0  0  0  0  0  0  0  0  0
   27.1109   17.4771   12.6080 H   0  0  0  0  0  0  0  0  0  0  0  0
   24.6999   18.1606   14.2388 H   0  0  0  0  0  0  0  0  0  0  0  0
   26.3579   16.7863   15.3909 H   0  0  0  0  0  0  0  0  0  0  0  0
   27.6405   17.9916   15.0326 H   0  0  0  0  0  0  0  0  0  0  0  0
   25.1190   18.4346   16.7067 H   0  0  0  0  0  0  0  0  0  0  0  0
   26.8258   18.3331   17.2997 H   0  0  0  0  0  0  0  0  0  0  0  0
   25.9059   21.6118   14.9012 H   0  0  0  0  0  0  0  0  0  0  0  0
   29.9671    9.6869    7.6806 H   0  0  0  0  0  0  0  0  0  0  0  0
  1  2  1  0
  2  3  1  0
  3  4  2  0
  4  5  1  0
  5  6  1  0
  6  7  2  0
  6  8  2  0
  6  9  1  0
  9 10  1  0
 10 11  2  0
 11 12  1  0
 12 13  2  0
 13 14  1  0
 14 15  2  0
 14 16  1  0
 16 17  1  0
 17 18  1  0
 18 19  1  0
 19 20  2  0
 20 21  1  0
 21 22  2  0
 21 23  1  0
 23 24  1  0
 24 25  1  0
 25 26  1  0
 26 27  1  0
 27 28  2  0
 27 29  1  0
 29 30  1  0
 30 31  2  0
 20 32  1  0
 32 33  1  0
  5 34  1  0
 34 35  2  0
 35  3  1  0
 15 10  1  0
 33 18  2  0
 33 13  1  0
 30 24  1  0
  1 36  1  0
  1 37  1  0
  1 38  1  0
  2 39  1  0
  2 40  1  0
  4 41  1  0
 11 42  1  0
 12 43  1  0
 15 44  1  0
 16 45  1  0
 16 46  1  0
 17 47  1  0
 17 48  1  0
 19 49  1  0
 23 50  1  0
 24 51  1  1
 25 52  1  0
 25 53  1  0
 26 54  1  0
 26 55  1  0
 29 56  1  0
 34 57  1  0
M  END
>  <meeko>  (790) 
{"is_sidechain": [true], "free_energy": -11.45, "intermolecular_energy": 0.0, "internal_energy": -11.45, "cluster_size": 20, "cluster_id": 1, "rank_in_cluster": 1}

>  <_RMSD_MCS_to_ref>  (790) 
1.051237524698073

$$$$
ligand
     RDKit          3D

 60 65  0  0  0  0  0  0  0  0999 V2000
   24.8710    9.6170    7.7820 C   0  0  0  0  0  0  0  0  0  0  0  0
   25.4240   10.9640    7.3490 C   0  0  0  0  0  0  0  0  0  0  0  0
   26.8570   11.1300    7.7140 C   0  0  0  0  0  0  0  0  0  0  0  0
   27.4700   12.1910    8.3540 C   0  0  0  0  0  0  0  0  0  0  0  0
   28.7760   11.8060    8.4630 N   0  0  0  0  0  0  0  0  0  0  0  0
   30.0490   12.7680    9.0100 S   0  0  0  0  0  6  0  0  0  0  0  0
   31.2320   12.1880    8.4050 O   0  0  0  0  0  0  0  0  0  0  0  0
   29.8910   12.8110   10.4540 O   0  0  0  0  0  0  0  0  0  0  0  0
   29.8700   14.2860    8.4190 O   0  0  0  0  0  0  0  0  0  0  0  0
   29.0890   14.5290    7.3640 C   0  0  0  0  0  0  0  0  0  0  0  0
   27.7970   15.0160    7.2680 C   0  0  0  0  0  0  0  0  0  0  0  0
   26.9420   15.3800    8.3830 C   0  0  0  0  0  0  0  0  0  0  0  0
   25.6360   14.8490    8.5070 C   0  0  0  0  0  0  0  0  0  0  0  0
   24.8320   15.1660    9.6050 C   0  0  0  0  0  0  0  0  0  0  0  0
   25.3650   16.0110   10.5590 C   0  0  0  0  0  0  0  0  0  0  0  0
   26.6410   16.5590   10.4520 C   0  0  0  0  0  0  0  0  0  0  0  0
   27.4370   16.2630    9.3590 C   0  0  0  0  0  0  0  0  0  0  0  0
   26.9240   17.4300   11.6280 C   0  0  0  0  0  0  0  0  0  0  0  0
   25.7270   17.2600   12.4440 N   0  0  0  0  0  0  0  0  0  0  0  0
   25.4210   18.0860   13.6050 C   0  0  1  0  0  0  0  0  0  0  0  0
   25.9650   17.4920   14.9010 C   0  0  0  0  0  0  0  0  0  0  0  0
   25.5280   18.3560   16.0740 C   0  0  0  0  0  0  0  0  0  0  0  0
   25.9630   19.7910   15.8850 C   0  0  0  0  0  0  0  0  0  0  0  0
   26.3130   20.5000   16.8240 O   0  0  0  0  0  0  0  0  0  0  0  0
   25.9290   20.2780   14.6040 N   0  0  0  0  0  0  0  0  0  0  0  0
   25.9460   19.5230   13.4530 C   0  0  0  0  0  0  0  0  0  0  0  0
   26.3670   20.0040   12.4040 O   0  0  0  0  0  0  0  0  0  0  0  0
   24.7630   16.4960   11.8060 C   0  0  0  0  0  0  0  0  0  0  0  0
   23.6320   16.2500   12.1770 O   0  0  0  0  0  0  0  0  0  0  0  0
   27.4380   15.2030    5.9560 N   0  0  0  0  0  0  0  0  0  0  0  0
   28.4510   14.7510    5.2470 C   0  0  0  0  0  0  0  0  0  0  0  0
   28.6370   14.6520    3.8390 C   0  0  0  0  0  0  0  0  0  0  0  0
   29.7780   14.1280    3.3500 C   0  0  0  0  0  0  0  0  0  0  0  0
   30.8360   13.6550    4.2290 C   0  0  0  0  0  0  0  0  0  0  0  0
   30.6690   13.7520    5.5590 C   0  0  0  0  0  0  0  0  0  0  0  0
   29.4890   14.3020    6.0620 N   0  0  0  0  0  0  0  0  0  0  0  0
   28.9370   10.6000    7.8610 C   0  0  0  0  0  0  0  0  0  0  0  0
   27.7830   10.1520    7.4090 N   0  0  0  0  0  0  0  0  0  0  0  0
   24.8498    9.5653    8.8806 H   0  0  0  0  0  0  0  0  0  0  0  0
   23.8505    9.4962    7.3895 H   0  0  0  0  0  0  0  0  0  0  0  0
   25.5122    8.8140    7.3895 H   0  0  0  0  0  0  0  0  0  0  0  0
   25.3245   11.0528    6.2571 H   0  0  0  0  0  0  0  0  0  0  0  0
   24.8515   11.7458    7.8695 H   0  0  0  0  0  0  0  0  0  0  0  0
   27.0112   13.1301    8.6969 H   0  0  0  0  0  0  0  0  0  0  0  0
   25.2481   14.1768    7.7275 H   0  0  0  0  0  0  0  0  0  0  0  0
   23.8151   14.7589    9.7057 H   0  0  0  0  0  0  0  0  0  0  0  0
   28.4369   16.7096    9.2559 H   0  0  0  0  0  0  0  0  0  0  0  0
   27.8224   17.0923   12.1654 H   0  0  0  0  0  0  0  0  0  0  0  0
   27.1254   18.4774   11.3588 H   0  0  0  0  0  0  0  0  0  0  0  0
   24.3227   18.1119   13.6609 H   0  0  0  0  0  0  0  0  0  0  0  0
   25.5735   16.4722   15.0302 H   0  0  0  0  0  0  0  0  0  0  0  0
   27.0636   17.4588   14.8578 H   0  0  0  0  0  0  0  0  0  0  0  0
   24.4317   18.3210   16.1571 H   0  0  0  0  0  0  0  0  0  0  0  0
   25.9979   17.9662   16.9890 H   0  0  0  0  0  0  0  0  0  0  0  0
   25.8869   21.3011   14.4927 H   0  0  0  0  0  0  0  0  0  0  0  0
   27.8519   15.0021    3.1527 H   0  0  0  0  0  0  0  0  0  0  0  0
   29.9125   14.0563    2.2606 H   0  0  0  0  0  0  0  0  0  0  0  0
   31.7583   13.2247    3.8117 H   0  0  0  0  0  0  0  0  0  0  0  0
   31.4546   13.4013    6.2444 H   0  0  0  0  0  0  0  0  0  0  0  0
   29.8964   10.0708    7.7640 H   0  0  0  0  0  0  0  0  0  0  0  0
  1  2  1  0
  2  3  1  0
  3  4  2  0
  4  5  1  0
  5  6  1  0
  6  7  2  0
  6  8  2  0
  6  9  1  0
  9 10  1  0
 10 11  2  0
 11 12  1  0
 12 13  2  0
 13 14  1  0
 14 15  2  0
 15 16  1  0
 16 17  2  0
 16 18  1  0
 18 19  1  0
 19 20  1  0
 20 21  1  0
 21 22  1  0
 22 23  1  0
 23 24  2  0
 23 25  1  0
 25 26  1  0
 26 27  2  0
 19 28  1  0
 28 29  2  0
 11 30  1  0
 30 31  2  0
 31 32  1  0
 32 33  2  0
 33 34  1  0
 34 35  2  0
 35 36  1  0
  5 37  1  0
 37 38  2  0
 38  3  1  0
 36 10  1  0
 17 12  1  0
 26 20  1  0
 36 31  1  0
 28 15  1  0
  1 39  1  0
  1 40  1  0
  1 41  1  0
  2 42  1  0
  2 43  1  0
  4 44  1  0
 13 45  1  0
 14 46  1  0
 17 47  1  0
 18 48  1  0
 18 49  1  0
 20 50  1  1
 21 51  1  0
 21 52  1  0
 22 53  1  0
 22 54  1  0
 25 55  1  0
 32 56  1  0
 33 57  1  0
 34 58  1  0
 35 59  1  0
 37 60  1  0
M  END
>  <meeko>  (791) 
{"is_sidechain": [true], "free_energy": -11.45, "intermolecular_energy": 0.0, "internal_energy": -11.45, "cluster_size": 15, "cluster_id": 1, "rank_in_cluster": 1}

>  <_RMSD_MCS_to_ref>  (791) 
1.5092887659249865

$$$$
ligand
     RDKit          3D

 58 63  0  0  0  0  0  0  0  0999 V2000
   24.8540    9.4020    7.6050 C   0  0  0  0  0  0  0  0  0  0  0  0
   25.5230   10.7550    7.4270 C   0  0  0  0  0  0  0  0  0  0  0  0
   25.3070   11.3140    6.0650 C   0  0  0  0  0  0  0  0  0  0  0  0
   24.4370   12.3080    5.6610 C   0  0  0  0  0  0  0  0  0  0  0  0
   24.6520   12.4120    4.3170 N   0  0  0  0  0  0  0  0  0  0  0  0
   24.0010   13.6100    3.3180 S   0  0  0  0  0  6  0  0  0  0  0  0
   22.7030   13.8720    3.9170 O   0  0  0  0  0  0  0  0  0  0  0  0
   24.0900   13.0680    1.9750 O   0  0  0  0  0  0  0  0  0  0  0  0
   25.0250   14.9990    3.4750 C   0  0  0  0  0  0  0  0  0  0  0  0
   25.5990   15.5070    2.3620 C   0  0  0  0  0  0  0  0  0  0  0  0
   26.4350   16.6910    2.4670 C   0  0  0  0  0  0  0  0  0  0  0  0
   26.6420   17.2960    3.6490 C   0  0  0  0  0  0  0  0  0  0  0  0
   26.0430   16.7720    4.8270 C   0  0  0  0  0  0  0  0  0  0  0  0
   26.0950   17.1980    6.0690 N   0  0  0  0  0  0  0  0  0  0  0  0
   25.3520   16.3070    6.8030 C   0  0  0  0  0  0  0  0  0  0  0  0
   25.1750   16.4260    8.2440 C   0  0  0  0  0  0  0  0  0  0  0  0
   24.0760   15.7650    8.8560 C   0  0  0  0  0  0  0  0  0  0  0  0
   23.8460   15.8340   10.2360 C   0  0  0  0  0  0  0  0  0  0  0  0
   24.7330   16.5800   10.9810 C   0  0  0  0  0  0  0  0  0  0  0  0
   25.8040   17.2310   10.4000 C   0  0  0  0  0  0  0  0  0  0  0  0
   26.0560   17.1740    9.0410 C   0  0  0  0  0  0  0  0  0  0  0  0
   26.5350   17.9130   11.4650 C   0  0  0  0  0  0  0  0  0  0  0  0
   27.5630   18.5380   11.2910 O   0  0  0  0  0  0  0  0  0  0  0  0
   25.8500   17.6780   12.6260 N   0  0  0  0  0  0  0  0  0  0  0  0
   26.3070   18.0510   13.9560 C   0  0  2  0  0  0  0  0  0  0  0  0
   25.8570   17.1030   15.0640 C   0  0  0  0  0  0  0  0  0  0  0  0
   26.4290   17.5790   16.3920 C   0  0  0  0  0  0  0  0  0  0  0  0
   26.0260   19.0060   16.6830 C   0  0  0  0  0  0  0  0  0  0  0  0
   25.9220   19.4370   17.8280 O   0  0  0  0  0  0  0  0  0  0  0  0
   25.8360   19.8260   15.5980 N   0  0  0  0  0  0  0  0  0  0  0  0
   25.8500   19.4800   14.2650 C   0  0  0  0  0  0  0  0  0  0  0  0
   25.5650   20.3100   13.4040 O   0  0  0  0  0  0  0  0  0  0  0  0
   24.7810   16.8490   12.4170 C   0  0  0  0  0  0  0  0  0  0  0  0
   23.9910   16.4030   13.2270 O   0  0  0  0  0  0  0  0  0  0  0  0
   24.8370   15.3260    5.9830 C   0  0  0  0  0  0  0  0  0  0  0  0
   25.2580   15.6220    4.7060 N   0  0  0  0  0  0  0  0  0  0  0  0
   25.6120   11.5290    3.9460 C   0  0  0  0  0  0  0  0  0  0  0  0
   26.0360   10.8480    4.9900 N   0  0  0  0  0  0  0  0  0  0  0  0
   24.7464    9.1845    8.6779 H   0  0  0  0  0  0  0  0  0  0  0  0
   23.8606    9.4192    7.1330 H   0  0  0  0  0  0  0  0  0  0  0  0
   25.4708    8.6230    7.1330 H   0  0  0  0  0  0  0  0  0  0  0  0
   25.1085   11.4553    8.1672 H   0  0  0  0  0  0  0  0  0  0  0  0
   26.6053   10.6177    7.5680 H   0  0  0  0  0  0  0  0  0  0  0  0
   23.7329   12.8834    6.2800 H   0  0  0  0  0  0  0  0  0  0  0  0
   25.4349   15.0285    1.3852 H   0  0  0  0  0  0  0  0  0  0  0  0
   26.9074   17.0998    1.5616 H   0  0  0  0  0  0  0  0  0  0  0  0
   27.2736   18.1948    3.7049 H   0  0  0  0  0  0  0  0  0  0  0  0
   23.3860   15.1824    8.2279 H   0  0  0  0  0  0  0  0  0  0  0  0
   22.9957   15.3161   10.7037 H   0  0  0  0  0  0  0  0  0  0  0  0
   26.9173   17.6970    8.5999 H   0  0  0  0  0  0  0  0  0  0  0  0
   27.4048   17.9841   13.9395 H   0  0  0  0  0  0  0  0  0  0  0  0
   24.7584   17.0953   15.1181 H   0  0  0  0  0  0  0  0  0  0  0  0
   26.2171   16.0860   14.8495 H   0  0  0  0  0  0  0  0  0  0  0  0
   26.0544   16.9296   17.1969 H   0  0  0  0  0  0  0  0  0  0  0  0
   27.5265   17.5329   16.3340 H   0  0  0  0  0  0  0  0  0  0  0  0
   25.6620   20.8196   15.8062 H   0  0  0  0  0  0  0  0  0  0  0  0
   24.2123   14.4739    6.2889 H   0  0  0  0  0  0  0  0  0  0  0  0
   25.9837   11.4000    2.9188 H   0  0  0  0  0  0  0  0  0  0  0  0
  1  2  1  0
  2  3  1  0
  3  4  2  0
  4  5  1  0
  5  6  1  0
  6  7  2  0
  6  8  2  0
  6  9  1  0
  9 10  2  0
 10 11  1  0
 11 12  2  0
 12 13  1  0
 13 14  2  0
 14 15  1  0
 15 16  1  0
 16 17  2  0
 17 18  1  0
 18 19  2  0
 19 20  1  0
 20 21  2  0
 20 22  1  0
 22 23  2  0
 22 24  1  0
 24 25  1  0
 25 26  1  0
 26 27  1  0
 27 28  1  0
 28 29  2  0
 28 30  1  0
 30 31  1  0
 31 32  2  0
 24 33  1  0
 33 34  2  0
 15 35  2  0
 35 36  1  0
  5 37  1  0
 37 38  2  0
 38  3  1  0
 36  9  1  0
 36 13  1  0
 21 16  1  0
 31 25  1  0
 33 19  1  0
  1 39  1  0
  1 40  1  0
  1 41  1  0
  2 42  1  0
  2 43  1  0
  4 44  1  0
 10 45  1  0
 11 46  1  0
 12 47  1  0
 17 48  1  0
 18 49  1  0
 21 50  1  0
 25 51  1  6
 26 52  1  0
 26 53  1  0
 27 54  1  0
 27 55  1  0
 30 56  1  0
 35 57  1  0
 37 58  1  0
M  END
>  <meeko>  (792) 
{"is_sidechain": [true], "free_energy": -11.44, "intermolecular_energy": 0.0, "internal_energy": -11.44, "cluster_size": 4, "cluster_id": 2, "rank_in_cluster": 1}

>  <_RMSD_MCS_to_ref>  (792) 
1.2428257677119858

$$$$
ligand
     RDKit          3D

 60 65  0  0  0  0  0  0  0  0999 V2000
   24.8540    9.4020    7.6050 C   0  0  0  0  0  0  0  0  0  0  0  0
   25.5230   10.7550    7.4270 C   0  0  0  0  0  0  0  0  0  0  0  0
   25.0490   11.4610    6.2060 C   0  0  0  0  0  0  0  0  0  0  0  0
   25.3590   12.7320    5.7630 C   0  0  0  0  0  0  0  0  0  0  0  0
   24.6700   12.8590    4.5930 N   0  0  0  0  0  0  0  0  0  0  0  0
   24.4720   14.2670    3.7070 S   0  0  0  0  0  6  0  0  0  0  0  0
   24.1080   13.8730    2.3590 O   0  0  0  0  0  0  0  0  0  0  0  0
   23.6490   15.1440    4.5140 O   0  0  0  0  0  0  0  0  0  0  0  0
   25.9950   15.0610    3.5700 C   0  0  0  0  0  0  0  0  0  0  0  0
   26.7700   15.0860    2.4220 C   0  0  0  0  0  0  0  0  0  0  0  0
   27.8640   15.8650    2.6790 N   0  0  0  0  0  0  0  0  0  0  0  0
   27.7920   16.3480    3.9550 C   0  0  0  0  0  0  0  0  0  0  0  0
   28.7050   17.1740    4.4810 N   0  0  0  0  0  0  0  0  0  0  0  0
   28.3970   17.5070    5.7390 C   0  0  0  0  0  0  0  0  0  0  0  0
   27.3420   17.0930    6.4600 N   0  0  0  0  0  0  0  0  0  0  0  0
   26.4400   16.2360    5.9140 C   0  0  0  0  0  0  0  0  0  0  0  0
   25.3720   15.7490    6.6790 N   0  0  0  0  0  0  0  0  0  0  0  0
   25.0460   15.9060    8.0390 C   0  0  0  0  0  0  0  0  0  0  0  0
   23.8900   15.2440    8.5300 C   0  0  0  0  0  0  0  0  0  0  0  0
   23.4720   15.3550    9.8640 C   0  0  0  0  0  0  0  0  0  0  0  0
   24.2240   16.1440   10.7110 C   0  0  0  0  0  0  0  0  0  0  0  0
   25.3530   16.8010   10.2330 C   0  0  0  0  0  0  0  0  0  0  0  0
   25.7790   16.7070    8.9190 C   0  0  0  0  0  0  0  0  0  0  0  0
   25.9330   17.5720   11.3370 C   0  0  0  0  0  0  0  0  0  0  0  0
   26.8750   18.3340   11.2350 O   0  0  0  0  0  0  0  0  0  0  0  0
   25.1860   17.2760   12.4690 N   0  0  0  0  0  0  0  0  0  0  0  0
   25.2890   17.9980   13.7330 C   0  0  1  0  0  0  0  0  0  0  0  0
   26.3020   17.3990   14.7070 C   0  0  0  0  0  0  0  0  0  0  0  0
   26.2830   18.1900   16.0040 C   0  0  0  0  0  0  0  0  0  0  0  0
   26.5600   19.6540   15.7580 C   0  0  0  0  0  0  0  0  0  0  0  0
   26.9930   20.3950   16.6360 O   0  0  0  0  0  0  0  0  0  0  0  0
   26.2210   20.1470   14.5220 N   0  0  0  0  0  0  0  0  0  0  0  0
   25.5800   19.4890   13.4970 C   0  0  0  0  0  0  0  0  0  0  0  0
   25.1800   20.1130   12.5150 O   0  0  0  0  0  0  0  0  0  0  0  0
   24.0180   16.4670   12.1510 C   0  0  0  0  0  0  0  0  0  0  0  0
   26.6510   15.8460    4.5690 C   0  0  0  0  0  0  0  0  0  0  0  0
   23.9400   11.7320    4.3850 C   0  0  0  0  0  0  0  0  0  0  0  0
   24.1630   10.8530    5.3380 N   0  0  0  0  0  0  0  0  0  0  0  0
   24.7464    9.1845    8.6779 H   0  0  0  0  0  0  0  0  0  0  0  0
   23.8606    9.4192    7.1330 H   0  0  0  0  0  0  0  0  0  0  0  0
   25.4708    8.6230    7.1330 H   0  0  0  0  0  0  0  0  0  0  0  0
   25.3003   11.3785    8.3055 H   0  0  0  0  0  0  0  0  0  0  0  0
   26.6045   10.5851    7.3200 H   0  0  0  0  0  0  0  0  0  0  0  0
   26.0132   13.4736    6.2447 H   0  0  0  0  0  0  0  0  0  0  0  0
   26.5459   14.5724    1.4754 H   0  0  0  0  0  0  0  0  0  0  0  0
   28.6255   16.0580    2.0129 H   0  0  0  0  0  0  0  0  0  0  0  0
   29.0876   18.2002    6.2415 H   0  0  0  0  0  0  0  0  0  0  0  0
   24.7038   15.1708    6.1497 H   0  0  0  0  0  0  0  0  0  0  0  0
   23.3014   14.6220    7.8396 H   0  0  0  0  0  0  0  0  0  0  0  0
   22.5744   14.8306   10.2236 H   0  0  0  0  0  0  0  0  0  0  0  0
   26.6724   17.2494    8.5761 H   0  0  0  0  0  0  0  0  0  0  0  0
   24.3052   17.8936   14.2138 H   0  0  0  0  0  0  0  0  0  0  0  0
   26.0384   16.3510   14.9123 H   0  0  0  0  0  0  0  0  0  0  0  0
   27.3080   17.4430   14.2643 H   0  0  0  0  0  0  0  0  0  0  0  0
   25.2931   18.0864   16.4724 H   0  0  0  0  0  0  0  0  0  0  0  0
   27.0691   17.7940   16.6637 H   0  0  0  0  0  0  0  0  0  0  0  0
   26.4774   21.1278   14.3399 H   0  0  0  0  0  0  0  0  0  0  0  0
   23.9905   15.5529   12.7623 H   0  0  0  0  0  0  0  0  0  0  0  0
   23.0653   16.9791   12.3510 H   0  0  0  0  0  0  0  0  0  0  0  0
   23.2570   11.5762    3.5370 H   0  0  0  0  0  0  0  0  0  0  0  0
  1  2  1  0
  2  3  1  0
  3  4  2  0
  4  5  1  0
  5  6  1  0
  6  7  2  0
  6  8  2  0
  6  9  1  0
  9 10  2  0
 10 11  1  0
 11 12  1  0
 12 13  2  0
 13 14  1  0
 14 15  2  0
 15 16  1  0
 16 17  1  0
 17 18  1  0
 18 19  2  0
 19 20  1  0
 20 21  2  0
 21 22  1  0
 22 23  2  0
 22 24  1  0
 24 25  2  0
 24 26  1  0
 26 27  1  0
 27 28  1  0
 28 29  1  0
 29 30  1  0
 30 31  2  0
 30 32  1  0
 32 33  1  0
 33 34  2  0
 26 35  1  0
 16 36  2  0
  5 37  1  0
 37 38  2  0
 38  3  1  0
 36  9  1  0
 36 12  1  0
 23 18  1  0
 33 27  1  0
 35 21  1  0
  1 39  1  0
  1 40  1  0
  1 41  1  0
  2 42  1  0
  2 43  1  0
  4 44  1  0
 10 45  1  0
 11 46  1  0
 14 47  1  0
 17 48  1  0
 19 49  1  0
 20 50  1  0
 23 51  1  0
 27 52  1  1
 28 53  1  0
 28 54  1  0
 29 55  1  0
 29 56  1  0
 32 57  1  0
 35 58  1  0
 35 59  1  0
 37 60  1  0
M  END
>  <meeko>  (793) 
{"is_sidechain": [true], "free_energy": -11.44, "intermolecular_energy": 0.0, "internal_energy": -11.44, "cluster_size": 15, "cluster_id": 1, "rank_in_cluster": 1}

>  <_RMSD_MCS_to_ref>  (793) 
1.0425703813172513

$$$$
ligand
     RDKit          3D

 55 58  0  0  0  0  0  0  0  0999 V2000
   24.8540    9.4020    7.6050 C   0  0  0  0  0  0  0  0  0  0  0  0
   25.5230   10.7550    7.4270 C   0  0  0  0  0  0  0  0  0  0  0  0
   27.0060   10.6600    7.4870 C   0  0  0  0  0  0  0  0  0  0  0  0
   27.9450   11.6610    7.3270 C   0  0  0  0  0  0  0  0  0  0  0  0
   29.1430   11.0270    7.4910 N   0  0  0  0  0  0  0  0  0  0  0  0
   30.6420   11.7730    7.6390 S   0  0  0  0  0  6  0  0  0  0  0  0
   31.0660   12.0990    6.2910 O   0  0  0  0  0  0  0  0  0  0  0  0
   31.4200   10.9110    8.5070 O   0  0  0  0  0  0  0  0  0  0  0  0
   30.2830   13.2780    8.4980 C   0  0  0  0  0  0  0  0  0  0  0  0
   31.3200   14.0600    9.0000 C   0  0  0  0  0  0  0  0  0  0  0  0
   31.0090   15.2330    9.6780 C   0  0  0  0  0  0  0  0  0  0  0  0
   29.6720   15.6160    9.8520 C   0  0  0  0  0  0  0  0  0  0  0  0
   28.6120   14.8400    9.3470 C   0  0  0  0  0  0  0  0  0  0  0  0
   27.2330   15.2420    9.5340 N   0  0  0  0  0  0  0  0  0  0  0  0
   26.7910   15.7310   10.7700 C   0  0  0  0  0  0  0  0  0  0  0  0
   25.5190   16.0950   11.0000 C   0  0  0  0  0  0  0  0  0  0  0  0
   25.1920   16.6180   12.3640 C   0  0  0  0  0  0  0  0  0  0  0  0
   24.1780   16.2840   12.9640 O   0  0  0  0  0  0  0  0  0  0  0  0
   26.0860   17.5350   12.8600 N   0  0  0  0  0  0  0  0  0  0  0  0
   25.8200   18.2600   14.0950 C   0  0  1  0  0  0  0  0  0  0  0  0
   26.6360   17.7260   15.2680 C   0  0  0  0  0  0  0  0  0  0  0  0
   26.3430   18.5550   16.5090 C   0  0  0  0  0  0  0  0  0  0  0  0
   26.6020   20.0230   16.2620 C   0  0  0  0  0  0  0  0  0  0  0  0
   27.0290   20.7730   17.1340 O   0  0  0  0  0  0  0  0  0  0  0  0
   26.3120   20.4970   15.0080 N   0  0  0  0  0  0  0  0  0  0  0  0
   26.1720   19.7350   13.8750 C   0  0  0  0  0  0  0  0  0  0  0  0
   26.3140   20.2210   12.7530 O   0  0  0  0  0  0  0  0  0  0  0  0
   24.5600   16.0370    9.9260 C   0  0  0  0  0  0  0  0  0  0  0  0
   24.9240   15.5780    8.7240 C   0  0  0  0  0  0  0  0  0  0  0  0
   26.3160   15.1090    8.4650 C   0  0  0  0  0  0  0  0  0  0  0  0
   26.5360   14.6250    7.3550 O   0  0  0  0  0  0  0  0  0  0  0  0
   28.9460   13.6710    8.6500 C   0  0  0  0  0  0  0  0  0  0  0  0
   28.9180    9.7180    7.7730 C   0  0  0  0  0  0  0  0  0  0  0  0
   27.6270    9.4560    7.7610 N   0  0  0  0  0  0  0  0  0  0  0  0
   24.7464    9.1845    8.6779 H   0  0  0  0  0  0  0  0  0  0  0  0
   23.8606    9.4192    7.1330 H   0  0  0  0  0  0  0  0  0  0  0  0
   25.4708    8.6230    7.1330 H   0  0  0  0  0  0  0  0  0  0  0  0
   25.2336   11.1675    6.4492 H   0  0  0  0  0  0  0  0  0  0  0  0
   25.1925   11.4063    8.2496 H   0  0  0  0  0  0  0  0  0  0  0  0
   27.7677   12.7259    7.1157 H   0  0  0  0  0  0  0  0  0  0  0  0
   32.3678   13.7547    8.8624 H   0  0  0  0  0  0  0  0  0  0  0  0
   31.8159   15.8635   10.0798 H   0  0  0  0  0  0  0  0  0  0  0  0
   29.4459   16.5449   10.3960 H   0  0  0  0  0  0  0  0  0  0  0  0
   27.5191   15.8209   11.5896 H   0  0  0  0  0  0  0  0  0  0  0  0
   26.9620   17.7136   12.3485 H   0  0  0  0  0  0  0  0  0  0  0  0
   24.7565   18.1311   14.3448 H   0  0  0  0  0  0  0  0  0  0  0  0
   26.3648   16.6766   15.4557 H   0  0  0  0  0  0  0  0  0  0  0  0
   27.7077   17.7908   15.0286 H   0  0  0  0  0  0  0  0  0  0  0  0
   25.2881   18.4195   16.7897 H   0  0  0  0  0  0  0  0  0  0  0  0
   27.0073   18.2164   17.3177 H   0  0  0  0  0  0  0  0  0  0  0  0
   26.1884   21.5146   14.9077 H   0  0  0  0  0  0  0  0  0  0  0  0
   23.5258   16.3712   10.0954 H   0  0  0  0  0  0  0  0  0  0  0  0
   24.1833   15.5457    7.9114 H   0  0  0  0  0  0  0  0  0  0  0  0
   28.1469   13.0524    8.2156 H   0  0  0  0  0  0  0  0  0  0  0  0
   29.7049    8.9785    7.9825 H   0  0  0  0  0  0  0  0  0  0  0  0
  1  2  1  0
  2  3  1  0
  3  4  2  0
  4  5  1  0
  5  6  1  0
  6  7  2  0
  6  8  2  0
  6  9  1  0
  9 10  2  0
 10 11  1  0
 11 12  2  0
 12 13  1  0
 13 14  1  0
 14 15  1  0
 15 16  2  0
 16 17  1  0
 17 18  2  0
 17 19  1  0
 19 20  1  0
 20 21  1  0
 21 22  1  0
 22 23  1  0
 23 24  2  0
 23 25  1  0
 25 26  1  0
 26 27  2  0
 16 28  1  0
 28 29  2  0
 29 30  1  0
 30 31  2  0
 13 32  2  0
  5 33  1  0
 33 34  2  0
 34  3  1  0
 32  9  1  0
 30 14  1  0
 26 20  1  0
  1 35  1  0
  1 36  1  0
  1 37  1  0
  2 38  1  0
  2 39  1  0
  4 40  1  0
 10 41  1  0
 11 42  1  0
 12 43  1  0
 15 44  1  0
 19 45  1  0
 20 46  1  1
 21 47  1  0
 21 48  1  0
 22 49  1  0
 22 50  1  0
 25 51  1  0
 28 52  1  0
 29 53  1  0
 32 54  1  0
 33 55  1  0
M  END
>  <meeko>  (794) 
{"is_sidechain": [true], "free_energy": -11.44, "intermolecular_energy": 0.0, "internal_energy": -11.44, "cluster_size": 14, "cluster_id": 1, "rank_in_cluster": 1}

>  <_RMSD_MCS_to_ref>  (794) 
1.0461415880377858

$$$$
ligand
     RDKit          3D

 62 67  0  0  0  0  0  0  0  0999 V2000
   24.8710    9.6160    7.7820 C   0  0  0  0  0  0  0  0  0  0  0  0
   25.4240   10.9650    7.3490 C   0  0  0  0  0  0  0  0  0  0  0  0
   24.9930   11.3340    5.9740 C   0  0  0  0  0  0  0  0  0  0  0  0
   24.2890   12.4460    5.5540 C   0  0  0  0  0  0  0  0  0  0  0  0
   24.1530   12.2640    4.2070 N   0  0  0  0  0  0  0  0  0  0  0  0
   23.4810   13.3720    3.1320 S   0  0  0  0  0  6  0  0  0  0  0  0
   23.7760   12.8010    1.8290 O   0  0  0  0  0  0  0  0  0  0  0  0
   22.1020   13.5550    3.5500 O   0  0  0  0  0  0  0  0  0  0  0  0
   24.3140   14.7780    3.2460 O   0  0  0  0  0  0  0  0  0  0  0  0
   25.2730   14.9140    4.2240 C   0  0  0  0  0  0  0  0  0  0  0  0
   24.8130   15.1440    5.5260 C   0  0  0  0  0  0  0  0  0  0  0  0
   25.7150   15.3080    6.5820 C   0  0  0  0  0  0  0  0  0  0  0  0
   25.2430   15.5320    7.9600 C   0  0  0  0  0  0  0  0  0  0  0  0
   24.1260   14.8180    8.4670 C   0  0  0  0  0  0  0  0  0  0  0  0
   23.6490   15.0100    9.7710 C   0  0  0  0  0  0  0  0  0  0  0  0
   24.3030   15.9230   10.5740 C   0  0  0  0  0  0  0  0  0  0  0  0
   25.4010   16.6230   10.0830 C   0  0  0  0  0  0  0  0  0  0  0  0
   25.8880   16.4560    8.7990 C   0  0  0  0  0  0  0  0  0  0  0  0
   25.8870   17.5130   11.1410 C   0  0  0  0  0  0  0  0  0  0  0  0
   26.8050   18.3020   11.0250 O   0  0  0  0  0  0  0  0  0  0  0  0
   25.1060   17.2690   12.2620 N   0  0  0  0  0  0  0  0  0  0  0  0
   25.1340   18.1450   13.4260 C   0  0  2  0  0  0  0  0  0  0  0  0
   25.7060   19.5230   13.1050 C   0  0  0  0  0  0  0  0  0  0  0  0
   25.6190   20.4070   14.3400 C   0  0  0  0  0  0  0  0  0  0  0  0
   26.3150   19.7670   15.5180 C   0  0  0  0  0  0  0  0  0  0  0  0
   26.9310   20.4220   16.3520 O   0  0  0  0  0  0  0  0  0  0  0  0
   26.2080   18.4040   15.6270 N   0  0  0  0  0  0  0  0  0  0  0  0
   25.9260   17.5370   14.5950 C   0  0  0  0  0  0  0  0  0  0  0  0
   26.3070   16.3700   14.6440 O   0  0  0  0  0  0  0  0  0  0  0  0
   24.0150   16.3440   11.9770 C   0  0  0  0  0  0  0  0  0  0  0  0
   27.0860   15.2530    6.2840 C   0  0  0  0  0  0  0  0  0  0  0  0
   27.5460   15.0450    4.9680 C   0  0  0  0  0  0  0  0  0  0  0  0
   28.9160   15.0020    4.6680 C   0  0  0  0  0  0  0  0  0  0  0  0
   29.3320   14.8060    3.3570 C   0  0  0  0  0  0  0  0  0  0  0  0
   28.3630   14.6610    2.3850 C   0  0  0  0  0  0  0  0  0  0  0  0
   27.0360   14.6970    2.6390 N   0  0  0  0  0  0  0  0  0  0  0  0
   26.6310   14.8780    3.9120 C   0  0  0  0  0  0  0  0  0  0  0  0
   24.8050   11.1320    3.8410 C   0  0  0  0  0  0  0  0  0  0  0  0
   25.3040   10.5240    4.8980 N   0  0  0  0  0  0  0  0  0  0  0  0
   24.8497    9.5640    8.8806 H   0  0  0  0  0  0  0  0  0  0  0  0
   23.8507    9.4948    7.3893 H   0  0  0  0  0  0  0  0  0  0  0  0
   25.5127    8.8135    7.3893 H   0  0  0  0  0  0  0  0  0  0  0  0
   25.0691   11.7348    8.0500 H   0  0  0  0  0  0  0  0  0  0  0  0
   26.5219   10.8965    7.3517 H   0  0  0  0  0  0  0  0  0  0  0  0
   23.9224   13.2848    6.1639 H   0  0  0  0  0  0  0  0  0  0  0  0
   23.7316   15.1962    5.7203 H   0  0  0  0  0  0  0  0  0  0  0  0
   23.6186   14.0909    7.8160 H   0  0  0  0  0  0  0  0  0  0  0  0
   22.7789   14.4496   10.1437 H   0  0  0  0  0  0  0  0  0  0  0  0
   26.7563   17.0308    8.4447 H   0  0  0  0  0  0  0  0  0  0  0  0
   24.0820   18.2583   13.7266 H   0  0  0  0  0  0  0  0  0  0  0  0
   26.7579   19.4216   12.7998 H   0  0  0  0  0  0  0  0  0  0  0  0
   25.1295   19.9782   12.2862 H   0  0  0  0  0  0  0  0  0  0  0  0
   26.0957   21.3744   14.1235 H   0  0  0  0  0  0  0  0  0  0  0  0
   24.5582   20.5468   14.5952 H   0  0  0  0  0  0  0  0  0  0  0  0
   26.3508   17.9937   16.5609 H   0  0  0  0  0  0  0  0  0  0  0  0
   24.0349   15.4834   12.6618 H   0  0  0  0  0  0  0  0  0  0  0  0
   23.0180   16.7911   12.1036 H   0  0  0  0  0  0  0  0  0  0  0  0
   27.8178   15.3750    7.0961 H   0  0  0  0  0  0  0  0  0  0  0  0
   29.6595   15.1233    5.4696 H   0  0  0  0  0  0  0  0  0  0  0  0
   30.4012   14.7676    3.1015 H   0  0  0  0  0  0  0  0  0  0  0  0
   28.6889   14.5076    1.3456 H   0  0  0  0  0  0  0  0  0  0  0  0
   24.9033   10.7720    2.8062 H   0  0  0  0  0  0  0  0  0  0  0  0
  1  2  1  0
  2  3  1  0
  3  4  2  0
  4  5  1  0
  5  6  1  0
  6  7  2  0
  6  8  2  0
  6  9  1  0
  9 10  1  0
 10 11  2  0
 11 12  1  0
 12 13  1  0
 13 14  2  0
 14 15  1  0
 15 16  2  0
 16 17  1  0
 17 18  2  0
 17 19  1  0
 19 20  2  0
 19 21  1  0
 21 22  1  0
 22 23  1  0
 23 24  1  0
 24 25  1  0
 25 26  2  0
 25 27  1  0
 27 28  1  0
 28 29  2  0
 21 30  1  0
 12 31  2  0
 31 32  1  0
 32 33  2  0
 33 34  1  0
 34 35  2  0
 35 36  1  0
 36 37  2  0
  5 38  1  0
 38 39  2  0
 39  3  1  0
 37 10  1  0
 18 13  1  0
 28 22  1  0
 37 32  1  0
 30 16  1  0
  1 40  1  0
  1 41  1  0
  1 42  1  0
  2 43  1  0
  2 44  1  0
  4 45  1  0
 11 46  1  0
 14 47  1  0
 15 48  1  0
 18 49  1  0
 22 50  1  1
 23 51  1  0
 23 52  1  0
 24 53  1  0
 24 54  1  0
 27 55  1  0
 30 56  1  0
 30 57  1  0
 31 58  1  0
 33 59  1  0
 34 60  1  0
 35 61  1  0
 38 62  1  0
M  END
>  <meeko>  (795) 
{"is_sidechain": [true], "free_energy": -11.44, "intermolecular_energy": 0.0, "internal_energy": -11.44, "cluster_size": 1, "cluster_id": 2, "rank_in_cluster": 1}

>  <_RMSD_MCS_to_ref>  (795) 
1.8729476619608043

$$$$
ligand
     RDKit          3D

 58 62  0  0  0  0  0  0  0  0999 V2000
   24.8540    9.4020    7.6050 C   0  0  0  0  0  0  0  0  0  0  0  0
   25.5230   10.7550    7.4270 C   0  0  0  0  0  0  0  0  0  0  0  0
   27.0080   10.6580    7.4820 C   0  0  0  0  0  0  0  0  0  0  0  0
   27.9390   11.6640    7.6570 C   0  0  0  0  0  0  0  0  0  0  0  0
   29.1400   11.0110    7.6500 N   0  0  0  0  0  0  0  0  0  0  0  0
   30.6460   11.7500    7.6240 S   0  0  0  0  0  6  0  0  0  0  0  0
   31.6480   10.7350    7.3680 O   0  0  0  0  0  0  0  0  0  0  0  0
   30.4680   12.8590    6.7050 O   0  0  0  0  0  0  0  0  0  0  0  0
   30.9310   12.4270    9.2040 C   0  0  0  0  0  0  0  0  0  0  0  0
   32.0040   11.9680    9.9340 C   0  0  0  0  0  0  0  0  0  0  0  0
   32.2750   12.3660   11.1960 N   0  0  0  0  0  0  0  0  0  0  0  0
   31.4160   13.2280   11.7480 C   0  0  0  0  0  0  0  0  0  0  0  0
   30.3300   13.7270   11.1440 N   0  0  0  0  0  0  0  0  0  0  0  0
   30.1110   13.3170    9.8560 C   0  0  0  0  0  0  0  0  0  0  0  0
   28.9080   13.9650    9.2390 C   0  0  0  0  0  0  0  0  0  0  0  0
   29.0460   14.7010    8.2750 O   0  0  0  0  0  0  0  0  0  0  0  0
   27.7310   13.6820    9.9060 N   0  0  0  0  0  0  0  0  0  0  0  0
   26.4300   14.1100    9.5880 C   0  0  0  0  0  0  0  0  0  0  0  0
   25.6960   13.6210    8.4960 C   0  0  0  0  0  0  0  0  0  0  0  0
   24.3840   14.0690    8.2300 C   0  0  0  0  0  0  0  0  0  0  0  0
   23.7770   15.0160    9.0490 C   0  0  0  0  0  0  0  0  0  0  0  0
   24.5160   15.4890   10.1140 C   0  0  0  0  0  0  0  0  0  0  0  0
   25.8150   15.0580   10.3940 C   0  0  0  0  0  0  0  0  0  0  0  0
   26.3070   15.7560   11.6200 C   0  0  0  0  0  0  0  0  0  0  0  0
   25.2340   16.6860   11.9310 N   0  0  0  0  0  0  0  0  0  0  0  0
   25.2080   17.4230   13.1920 C   0  0  1  0  0  0  0  0  0  0  0  0
   25.7670   16.6390   14.3790 C   0  0  0  0  0  0  0  0  0  0  0  0
   25.6330   17.4760   15.6420 C   0  0  0  0  0  0  0  0  0  0  0  0
   26.3240   18.8100   15.4910 C   0  0  0  0  0  0  0  0  0  0  0  0
   26.6920   19.4690   16.4600 O   0  0  0  0  0  0  0  0  0  0  0  0
   26.4440   19.3020   14.2160 N   0  0  0  0  0  0  0  0  0  0  0  0
   25.9190   18.7790   13.0570 C   0  0  0  0  0  0  0  0  0  0  0  0
   25.9330   19.4350   12.0160 O   0  0  0  0  0  0  0  0  0  0  0  0
   24.1260   16.4770   11.1250 C   0  0  0  0  0  0  0  0  0  0  0  0
   23.0230   16.9780   11.2130 O   0  0  0  0  0  0  0  0  0  0  0  0
   28.9270    9.6920    7.4030 C   0  0  0  0  0  0  0  0  0  0  0  0
   27.6360    9.4410    7.3210 N   0  0  0  0  0  0  0  0  0  0  0  0
   24.7464    9.1845    8.6779 H   0  0  0  0  0  0  0  0  0  0  0  0
   23.8606    9.4192    7.1330 H   0  0  0  0  0  0  0  0  0  0  0  0
   25.4708    8.6230    7.1330 H   0  0  0  0  0  0  0  0  0  0  0  0
   25.2307   11.1694    6.4509 H   0  0  0  0  0  0  0  0  0  0  0  0
   25.1956   11.4055    8.2514 H   0  0  0  0  0  0  0  0  0  0  0  0
   27.7559   12.7422    7.7748 H   0  0  0  0  0  0  0  0  0  0  0  0
   32.6779   11.2368    9.4637 H   0  0  0  0  0  0  0  0  0  0  0  0
   31.6167   13.5532   12.7795 H   0  0  0  0  0  0  0  0  0  0  0  0
   27.8177   13.0832   10.7396 H   0  0  0  0  0  0  0  0  0  0  0  0
   26.1533   12.8720    7.8328 H   0  0  0  0  0  0  0  0  0  0  0  0
   23.8357   13.6652    7.3661 H   0  0  0  0  0  0  0  0  0  0  0  0
   22.7541   15.3716    8.8562 H   0  0  0  0  0  0  0  0  0  0  0  0
   26.4614   15.0433   12.4436 H   0  0  0  0  0  0  0  0  0  0  0  0
   27.2769   16.2532   11.4713 H   0  0  0  0  0  0  0  0  0  0  0  0
   24.1436   17.5931   13.4114 H   0  0  0  0  0  0  0  0  0  0  0  0
   25.2041   15.7015   14.4980 H   0  0  0  0  0  0  0  0  0  0  0  0
   26.8275   16.4074   14.2011 H   0  0  0  0  0  0  0  0  0  0  0  0
   24.5659   17.6463   15.8477 H   0  0  0  0  0  0  0  0  0  0  0  0
   26.1067   16.9312   16.4719 H   0  0  0  0  0  0  0  0  0  0  0  0
   26.9934   20.1673   14.1143 H   0  0  0  0  0  0  0  0  0  0  0  0
   29.7208    8.9393    7.2877 H   0  0  0  0  0  0  0  0  0  0  0  0
  1  2  1  0
  2  3  1  0
  3  4  2  0
  4  5  1  0
  5  6  1  0
  6  7  2  0
  6  8  2  0
  6  9  1  0
  9 10  2  0
 10 11  1  0
 11 12  2  0
 12 13  1  0
 13 14  2  0
 14 15  1  0
 15 16  2  0
 15 17  1  0
 17 18  1  0
 18 19  2  0
 19 20  1  0
 20 21  2  0
 21 22  1  0
 22 23  2  0
 23 24  1  0
 24 25  1  0
 25 26  1  0
 26 27  1  0
 27 28  1  0
 28 29  1  0
 29 30  2  0
 29 31  1  0
 31 32  1  0
 32 33  2  0
 25 34  1  0
 34 35  2  0
  5 36  1  0
 36 37  2  0
 37  3  1  0
 14  9  1  0
 23 18  1  0
 32 26  1  0
 34 22  1  0
  1 38  1  0
  1 39  1  0
  1 40  1  0
  2 41  1  0
  2 42  1  0
  4 43  1  0
 10 44  1  0
 12 45  1  0
 17 46  1  0
 19 47  1  0
 20 48  1  0
 21 49  1  0
 24 50  1  0
 24 51  1  0
 26 52  1  1
 27 53  1  0
 27 54  1  0
 28 55  1  0
 28 56  1  0
 31 57  1  0
 36 58  1  0
M  END
>  <meeko>  (796) 
{"is_sidechain": [true], "free_energy": -11.43, "intermolecular_energy": 0.0, "internal_energy": -11.43, "cluster_size": 18, "cluster_id": 1, "rank_in_cluster": 1}

>  <_RMSD_MCS_to_ref>  (796) 
1.8202420855479635

$$$$
ligand
     RDKit          3D

 53 57  0  0  0  0  0  0  0  0999 V2000
   24.8540    9.4020    7.6050 C   0  0  0  0  0  0  0  0  0  0  0  0
   25.5230   10.7550    7.4270 C   0  0  0  0  0  0  0  0  0  0  0  0
   24.7880   11.6190    6.4640 C   0  0  0  0  0  0  0  0  0  0  0  0
   25.2370   12.1800    5.2840 C   0  0  0  0  0  0  0  0  0  0  0  0
   24.1630   12.8910    4.8250 N   0  0  0  0  0  0  0  0  0  0  0  0
   24.1550   13.8940    3.4660 S   0  0  0  0  0  6  0  0  0  0  0  0
   25.1100   13.2590    2.5730 O   0  0  0  0  0  0  0  0  0  0  0  0
   22.7610   14.0240    3.0810 O   0  0  0  0  0  0  0  0  0  0  0  0
   24.7450   15.3560    3.8500 O   0  0  0  0  0  0  0  0  0  0  0  0
   25.2240   15.5820    5.0520 C   0  0  0  0  0  0  0  0  0  0  0  0
   24.5690   15.9290    6.1300 N   0  0  0  0  0  0  0  0  0  0  0  0
   25.5380   15.9330    7.1090 C   0  0  0  0  0  0  0  0  0  0  0  0
   25.2540   16.2160    8.5060 C   0  0  0  0  0  0  0  0  0  0  0  0
   24.0510   15.7980    9.1240 C   0  0  0  0  0  0  0  0  0  0  0  0
   23.7890   16.0910   10.4680 C   0  0  0  0  0  0  0  0  0  0  0  0
   24.7460   16.8030   11.1640 C   0  0  0  0  0  0  0  0  0  0  0  0
   25.9380   17.2210   10.5840 C   0  0  0  0  0  0  0  0  0  0  0  0
   26.2060   16.9340    9.2570 C   0  0  0  0  0  0  0  0  0  0  0  0
   26.7750   17.9410   11.5870 C   0  0  0  0  0  0  0  0  0  0  0  0
   25.9020   17.9780   12.7560 N   0  0  0  0  0  0  0  0  0  0  0  0
   26.3620   18.3560   14.0860 C   0  0  2  0  0  0  0  0  0  0  0  0
   25.9800   17.3300   15.1480 C   0  0  0  0  0  0  0  0  0  0  0  0
   26.5710   17.7450   16.4870 C   0  0  0  0  0  0  0  0  0  0  0  0
   26.1330   19.1410   16.8690 C   0  0  0  0  0  0  0  0  0  0  0  0
   25.9310   19.4700   18.0340 O   0  0  0  0  0  0  0  0  0  0  0  0
   25.9950   20.0420   15.8440 N   0  0  0  0  0  0  0  0  0  0  0  0
   25.8360   19.7370   14.5110 C   0  0  0  0  0  0  0  0  0  0  0  0
   25.3060   20.5440   13.7510 O   0  0  0  0  0  0  0  0  0  0  0  0
   24.7390   17.2460   12.5620 C   0  0  0  0  0  0  0  0  0  0  0  0
   23.8630   17.0020   13.3680 O   0  0  0  0  0  0  0  0  0  0  0  0
   26.7510   15.5970    6.5480 C   0  0  0  0  0  0  0  0  0  0  0  0
   26.5540   15.3570    5.2180 O   0  0  0  0  0  0  0  0  0  0  0  0
   23.1280   12.7470    5.6910 C   0  0  0  0  0  0  0  0  0  0  0  0
   23.4750   11.9780    6.7040 N   0  0  0  0  0  0  0  0  0  0  0  0
   24.7464    9.1845    8.6779 H   0  0  0  0  0  0  0  0  0  0  0  0
   23.8606    9.4192    7.1330 H   0  0  0  0  0  0  0  0  0  0  0  0
   25.4708    8.6230    7.1330 H   0  0  0  0  0  0  0  0  0  0  0  0
   25.5614   11.2630    8.4019 H   0  0  0  0  0  0  0  0  0  0  0  0
   26.5332   10.5840    7.0268 H   0  0  0  0  0  0  0  0  0  0  0  0
   26.2294   12.0782    4.8207 H   0  0  0  0  0  0  0  0  0  0  0  0
   23.3099   15.2338    8.5389 H   0  0  0  0  0  0  0  0  0  0  0  0
   22.8558   15.7662   10.9513 H   0  0  0  0  0  0  0  0  0  0  0  0
   27.1489   17.2617    8.7949 H   0  0  0  0  0  0  0  0  0  0  0  0
   27.7026   17.3896   11.8005 H   0  0  0  0  0  0  0  0  0  0  0  0
   27.1031   18.9361   11.2521 H   0  0  0  0  0  0  0  0  0  0  0  0
   27.4588   18.3970   14.0136 H   0  0  0  0  0  0  0  0  0  0  0  0
   24.8844   17.2779   15.2307 H   0  0  0  0  0  0  0  0  0  0  0  0
   26.3726   16.3427   14.8632 H   0  0  0  0  0  0  0  0  0  0  0  0
   26.2358   17.0393   17.2613 H   0  0  0  0  0  0  0  0  0  0  0  0
   27.6676   17.7351   16.4018 H   0  0  0  0  0  0  0  0  0  0  0  0
   26.0119   21.0407   16.0953 H   0  0  0  0  0  0  0  0  0  0  0  0
   27.7119   15.5331    7.0796 H   0  0  0  0  0  0  0  0  0  0  0  0
   22.1372   13.2079    5.5651 H   0  0  0  0  0  0  0  0  0  0  0  0
  1  2  1  0
  2  3  1  0
  3  4  2  0
  4  5  1  0
  5  6  1  0
  6  7  2  0
  6  8  2  0
  6  9  1  0
  9 10  1  0
 10 11  2  0
 11 12  1  0
 12 13  1  0
 13 14  2  0
 14 15  1  0
 15 16  2  0
 16 17  1  0
 17 18  2  0
 17 19  1  0
 19 20  1  0
 20 21  1  0
 21 22  1  0
 22 23  1  0
 23 24  1  0
 24 25  2  0
 24 26  1  0
 26 27  1  0
 27 28  2  0
 20 29  1  0
 29 30  2  0
 12 31  2  0
 31 32  1  0
  5 33  1  0
 33 34  2  0
 34  3  1  0
 32 10  1  0
 18 13  1  0
 27 21  1  0
 29 16  1  0
  1 35  1  0
  1 36  1  0
  1 37  1  0
  2 38  1  0
  2 39  1  0
  4 40  1  0
 14 41  1  0
 15 42  1  0
 18 43  1  0
 19 44  1  0
 19 45  1  0
 21 46  1  6
 22 47  1  0
 22 48  1  0
 23 49  1  0
 23 50  1  0
 26 51  1  0
 31 52  1  0
 33 53  1  0
M  END
>  <meeko>  (797) 
{"is_sidechain": [true], "free_energy": -11.43, "intermolecular_energy": 0.0, "internal_energy": -11.43, "cluster_size": 15, "cluster_id": 1, "rank_in_cluster": 1}

>  <_RMSD_MCS_to_ref>  (797) 
1.1588680300668877

$$$$
ligand
     RDKit          3D

 49 52  0  0  0  0  0  0  0  0999 V2000
   24.8710    9.6160    7.7820 C   0  0  0  0  0  0  0  0  0  0  0  0
   25.4240   10.9650    7.3490 C   0  0  0  0  0  0  0  0  0  0  0  0
   26.7810   11.2200    7.9050 C   0  0  0  0  0  0  0  0  0  0  0  0
   27.1490   12.0190    8.9690 C   0  0  0  0  0  0  0  0  0  0  0  0
   28.5030   11.8570    9.0580 N   0  0  0  0  0  0  0  0  0  0  0  0
   29.5430   12.7780   10.0110 S   0  0  0  0  0  6  0  0  0  0  0  0
   29.1270   12.5080   11.3750 O   0  0  0  0  0  0  0  0  0  0  0  0
   30.8720   12.4450    9.5350 O   0  0  0  0  0  0  0  0  0  0  0  0
   29.2180   14.3350    9.6490 O   0  0  0  0  0  0  0  0  0  0  0  0
   27.9470   14.8460    9.5230 C   0  0  0  0  0  0  0  0  0  0  0  0
   27.4090   14.7500    8.1750 C   0  0  0  0  0  0  0  0  0  0  0  0
   26.1760   15.1970    7.8750 C   0  0  0  0  0  0  0  0  0  0  0  0
   25.3690   15.7810    8.8890 C   0  0  0  0  0  0  0  0  0  0  0  0
   24.1540   16.2750    8.8310 N   0  0  0  0  0  0  0  0  0  0  0  0
   23.8810   16.7010   10.1000 C   0  0  0  0  0  0  0  0  0  0  0  0
   24.9340   16.4640   10.9710 C   0  0  0  0  0  0  0  0  0  0  0  0
   25.0580   16.7620   12.3770 C   0  0  0  0  0  0  0  0  0  0  0  0
   24.9720   15.9190   13.2640 O   0  0  0  0  0  0  0  0  0  0  0  0
   25.2740   18.0870   12.6840 N   0  0  0  0  0  0  0  0  0  0  0  0
   25.2820   18.5560   14.0620 C   0  0  1  0  0  0  0  0  0  0  0  0
   26.3050   17.8200   14.9200 C   0  0  0  0  0  0  0  0  0  0  0  0
   26.2870   18.3860   16.3310 C   0  0  0  0  0  0  0  0  0  0  0  0
   26.5250   19.8790   16.3260 C   0  0  0  0  0  0  0  0  0  0  0  0
   27.1300   20.4530   17.2260 O   0  0  0  0  0  0  0  0  0  0  0  0
   26.0030   20.5800   15.2690 N   0  0  0  0  0  0  0  0  0  0  0  0
   25.6160   20.0500   14.0630 C   0  0  0  0  0  0  0  0  0  0  0  0
   25.5380   20.7490   13.0530 O   0  0  0  0  0  0  0  0  0  0  0  0
   25.9040   15.8690   10.1760 N   0  0  0  0  0  0  0  0  0  0  0  0
   27.1870   15.4010   10.4880 C   0  0  0  0  0  0  0  0  0  0  0  0
   28.9230   11.0640    8.0400 C   0  0  0  0  0  0  0  0  0  0  0  0
   27.8960   10.6380    7.3330 N   0  0  0  0  0  0  0  0  0  0  0  0
   24.8497    9.5640    8.8806 H   0  0  0  0  0  0  0  0  0  0  0  0
   23.8507    9.4948    7.3893 H   0  0  0  0  0  0  0  0  0  0  0  0
   25.5127    8.8135    7.3893 H   0  0  0  0  0  0  0  0  0  0  0  0
   25.4807   10.9888    6.2507 H   0  0  0  0  0  0  0  0  0  0  0  0
   24.7497   11.7454    7.7315 H   0  0  0  0  0  0  0  0  0  0  0  0
   26.5004   12.6435    9.6009 H   0  0  0  0  0  0  0  0  0  0  0  0
   28.0250   14.3012    7.3819 H   0  0  0  0  0  0  0  0  0  0  0  0
   25.7933   15.1107    6.8473 H   0  0  0  0  0  0  0  0  0  0  0  0
   22.9349   17.1772   10.3968 H   0  0  0  0  0  0  0  0  0  0  0  0
   25.4334   18.7611   11.9217 H   0  0  0  0  0  0  0  0  0  0  0  0
   24.2883   18.3638   14.4929 H   0  0  0  0  0  0  0  0  0  0  0  0
   26.0542   16.7494   14.9515 H   0  0  0  0  0  0  0  0  0  0  0  0
   27.3075   17.9501   14.4864 H   0  0  0  0  0  0  0  0  0  0  0  0
   25.3073   18.1807   16.7872 H   0  0  0  0  0  0  0  0  0  0  0  0
   27.0923   17.9076   16.9078 H   0  0  0  0  0  0  0  0  0  0  0  0
   25.8911   21.5966   15.3911 H   0  0  0  0  0  0  0  0  0  0  0  0
   27.5721   15.4860   11.5149 H   0  0  0  0  0  0  0  0  0  0  0  0
   29.9738   10.8121    7.8339 H   0  0  0  0  0  0  0  0  0  0  0  0
  1  2  1  0
  2  3  1  0
  3  4  2  0
  4  5  1  0
  5  6  1  0
  6  7  2  0
  6  8  2  0
  6  9  1  0
  9 10  1  0
 10 11  1  0
 11 12  2  0
 12 13  1  0
 13 14  2  0
 14 15  1  0
 15 16  2  0
 16 17  1  0
 17 18  2  0
 17 19  1  0
 19 20  1  0
 20 21  1  0
 21 22  1  0
 22 23  1  0
 23 24  2  0
 23 25  1  0
 25 26  1  0
 26 27  2  0
 16 28  1  0
 28 29  1  0
  5 30  1  0
 30 31  2  0
 31  3  1  0
 29 10  2  0
 28 13  1  0
 26 20  1  0
  1 32  1  0
  1 33  1  0
  1 34  1  0
  2 35  1  0
  2 36  1  0
  4 37  1  0
 11 38  1  0
 12 39  1  0
 15 40  1  0
 19 41  1  0
 20 42  1  1
 21 43  1  0
 21 44  1  0
 22 45  1  0
 22 46  1  0
 25 47  1  0
 29 48  1  0
 30 49  1  0
M  END
>  <meeko>  (798) 
{"is_sidechain": [true], "free_energy": -11.43, "intermolecular_energy": 0.0, "internal_energy": -11.43, "cluster_size": 14, "cluster_id": 1, "rank_in_cluster": 1}

>  <_RMSD_MCS_to_ref>  (798) 
0.7574856800993374

$$$$
ligand
     RDKit          3D

 48 51  0  0  0  0  0  0  0  0999 V2000
   24.8710    9.6160    7.7820 C   0  0  0  0  0  0  0  0  0  0  0  0
   25.4240   10.9650    7.3490 C   0  0  0  0  0  0  0  0  0  0  0  0
   26.7800   11.2200    7.9050 C   0  0  0  0  0  0  0  0  0  0  0  0
   27.1410   11.9660    9.0100 C   0  0  0  0  0  0  0  0  0  0  0  0
   28.4990   11.8300    9.0780 N   0  0  0  0  0  0  0  0  0  0  0  0
   29.5270   12.7110   10.0830 S   0  0  0  0  0  6  0  0  0  0  0  0
   28.9750   12.5390   11.4130 O   0  0  0  0  0  0  0  0  0  0  0  0
   30.8600   12.2480    9.7420 O   0  0  0  0  0  0  0  0  0  0  0  0
   29.3690   14.2720    9.6210 O   0  0  0  0  0  0  0  0  0  0  0  0
   28.1080   14.7690    9.3650 C   0  0  0  0  0  0  0  0  0  0  0  0
   27.5470   14.6690    8.0540 C   0  0  0  0  0  0  0  0  0  0  0  0
   26.2530   15.1350    7.7280 C   0  0  0  0  0  0  0  0  0  0  0  0
   25.5570   15.6920    8.8140 C   0  0  0  0  0  0  0  0  0  0  0  0
   24.3260   16.2230    8.8750 N   0  0  0  0  0  0  0  0  0  0  0  0
   24.1290   16.6200   10.1860 O   0  0  0  0  0  0  0  0  0  0  0  0
   25.2320   16.3380   10.9450 C   0  0  0  0  0  0  0  0  0  0  0  0
   25.2150   16.6820   12.3450 C   0  0  0  0  0  0  0  0  0  0  0  0
   24.9850   15.8770   13.2450 O   0  0  0  0  0  0  0  0  0  0  0  0
   25.4700   18.0080   12.6220 N   0  0  0  0  0  0  0  0  0  0  0  0
   25.3590   18.5530   13.9660 C   0  0  1  0  0  0  0  0  0  0  0  0
   26.3260   17.8870   14.9390 C   0  0  0  0  0  0  0  0  0  0  0  0
   26.1820   18.5210   16.3130 C   0  0  0  0  0  0  0  0  0  0  0  0
   26.3850   20.0170   16.2520 C   0  0  0  0  0  0  0  0  0  0  0  0
   26.8970   20.6490   17.1720 O   0  0  0  0  0  0  0  0  0  0  0  0
   25.9400   20.6510   15.1220 N   0  0  0  0  0  0  0  0  0  0  0  0
   25.6580   20.0540   13.9170 C   0  0  0  0  0  0  0  0  0  0  0  0
   25.6370   20.7050   12.8750 O   0  0  0  0  0  0  0  0  0  0  0  0
   26.1580   15.7530   10.1240 C   0  0  0  0  0  0  0  0  0  0  0  0
   27.4290   15.3030   10.4790 C   0  0  0  0  0  0  0  0  0  0  0  0
   28.9260   11.1060    8.0120 C   0  0  0  0  0  0  0  0  0  0  0  0
   27.9030   10.6970    7.2920 N   0  0  0  0  0  0  0  0  0  0  0  0
   24.8497    9.5640    8.8806 H   0  0  0  0  0  0  0  0  0  0  0  0
   23.8507    9.4948    7.3893 H   0  0  0  0  0  0  0  0  0  0  0  0
   25.5127    8.8135    7.3893 H   0  0  0  0  0  0  0  0  0  0  0  0
   25.4810   10.9887    6.2507 H   0  0  0  0  0  0  0  0  0  0  0  0
   24.7496   11.7454    7.7313 H   0  0  0  0  0  0  0  0  0  0  0  0
   26.4850   12.5389    9.6819 H   0  0  0  0  0  0  0  0  0  0  0  0
   28.1519   14.2068    7.2600 H   0  0  0  0  0  0  0  0  0  0  0  0
   25.8290   15.0676    6.7152 H   0  0  0  0  0  0  0  0  0  0  0  0
   25.7482   18.6332   11.8522 H   0  0  0  0  0  0  0  0  0  0  0  0
   24.3368   18.3625   14.3248 H   0  0  0  0  0  0  0  0  0  0  0  0
   26.0974   16.8131   15.0053 H   0  0  0  0  0  0  0  0  0  0  0  0
   27.3570   18.0218   14.5801 H   0  0  0  0  0  0  0  0  0  0  0  0
   25.1739   18.3118   16.7002 H   0  0  0  0  0  0  0  0  0  0  0  0
   26.9498   18.0934   16.9746 H   0  0  0  0  0  0  0  0  0  0  0  0
   25.8042   21.6703   15.1813 H   0  0  0  0  0  0  0  0  0  0  0  0
   27.8470   15.3575   11.4950 H   0  0  0  0  0  0  0  0  0  0  0  0
   29.9800   10.8911    7.7820 H   0  0  0  0  0  0  0  0  0  0  0  0
  1  2  1  0
  2  3  1  0
  3  4  2  0
  4  5  1  0
  5  6  1  0
  6  7  2  0
  6  8  2  0
  6  9  1  0
  9 10  1  0
 10 11  1  0
 11 12  2  0
 12 13  1  0
 13 14  2  0
 14 15  1  0
 15 16  1  0
 16 17  1  0
 17 18  2  0
 17 19  1  0
 19 20  1  0
 20 21  1  0
 21 22  1  0
 22 23  1  0
 23 24  2  0
 23 25  1  0
 25 26  1  0
 26 27  2  0
 16 28  2  0
 28 29  1  0
  5 30  1  0
 30 31  2  0
 31  3  1  0
 29 10  2  0
 28 13  1  0
 26 20  1  0
  1 32  1  0
  1 33  1  0
  1 34  1  0
  2 35  1  0
  2 36  1  0
  4 37  1  0
 11 38  1  0
 12 39  1  0
 19 40  1  0
 20 41  1  1
 21 42  1  0
 21 43  1  0
 22 44  1  0
 22 45  1  0
 25 46  1  0
 29 47  1  0
 30 48  1  0
M  END
>  <meeko>  (799) 
{"is_sidechain": [true], "free_energy": -11.43, "intermolecular_energy": 0.0, "internal_energy": -11.43, "cluster_size": 19, "cluster_id": 1, "rank_in_cluster": 1}

>  <_RMSD_MCS_to_ref>  (799) 
0.8409856650912008

$$$$
ligand
     RDKit          3D

 56 60  0  0  0  0  0  0  0  0999 V2000
   24.8540    9.4020    7.6050 C   0  0  0  0  0  0  0  0  0  0  0  0
   25.5230   10.7550    7.4270 C   0  0  0  0  0  0  0  0  0  0  0  0
   25.1970   11.3760    6.1150 C   0  0  0  0  0  0  0  0  0  0  0  0
   24.4550   12.5110    5.8510 C   0  0  0  0  0  0  0  0  0  0  0  0
   24.4580   12.6030    4.4880 N   0  0  0  0  0  0  0  0  0  0  0  0
   23.8090   13.8550    3.5790 S   0  0  0  0  0  6  0  0  0  0  0  0
   24.4710   13.7980    2.2890 O   0  0  0  0  0  0  0  0  0  0  0  0
   22.3670   13.7300    3.7160 O   0  0  0  0  0  0  0  0  0  0  0  0
   24.3000   15.3460    4.3900 C   0  0  0  0  0  0  0  0  0  0  0  0
   24.9980   15.2630    5.5700 C   0  0  0  0  0  0  0  0  0  0  0  0
   25.3700   16.4650    6.1230 C   0  0  0  0  0  0  0  0  0  0  0  0
   26.0750   16.5550    7.3240 N   0  0  0  0  0  0  0  0  0  0  0  0
   25.6570   16.7090    8.6600 C   0  0  0  0  0  0  0  0  0  0  0  0
   24.4310   16.1070    9.0380 C   0  0  0  0  0  0  0  0  0  0  0  0
   23.9480   16.1790   10.3480 C   0  0  0  0  0  0  0  0  0  0  0  0
   24.7200   16.8580   11.2670 C   0  0  0  0  0  0  0  0  0  0  0  0
   25.9290   17.4590   10.9300 C   0  0  0  0  0  0  0  0  0  0  0  0
   26.4090   17.3920    9.6310 C   0  0  0  0  0  0  0  0  0  0  0  0
   26.5110   18.1360   12.1260 C   0  0  0  0  0  0  0  0  0  0  0  0
   25.5740   17.7770   13.1830 N   0  0  0  0  0  0  0  0  0  0  0  0
   25.5700   18.4010   14.5010 C   0  0  1  0  0  0  0  0  0  0  0  0
   26.6770   17.8660   15.4040 C   0  0  0  0  0  0  0  0  0  0  0  0
   26.5520   18.4960   16.7830 C   0  0  0  0  0  0  0  0  0  0  0  0
   26.5720   20.0040   16.6980 C   0  0  0  0  0  0  0  0  0  0  0  0
   27.1040   20.7040   17.5530 O   0  0  0  0  0  0  0  0  0  0  0  0
   25.9430   20.5650   15.6160 N   0  0  0  0  0  0  0  0  0  0  0  0
   25.6900   19.9340   14.4190 C   0  0  0  0  0  0  0  0  0  0  0  0
   25.5880   20.5850   13.3830 O   0  0  0  0  0  0  0  0  0  0  0  0
   24.4690   17.0970   12.6920 C   0  0  0  0  0  0  0  0  0  0  0  0
   23.4720   16.7520   13.2950 O   0  0  0  0  0  0  0  0  0  0  0  0
   25.0260   17.6370    5.5550 N   0  0  0  0  0  0  0  0  0  0  0  0
   24.3400   17.5960    4.4030 C   0  0  0  0  0  0  0  0  0  0  0  0
   23.9560   16.4890    3.7640 N   0  0  0  0  0  0  0  0  0  0  0  0
   25.2080   11.5940    3.9750 C   0  0  0  0  0  0  0  0  0  0  0  0
   25.6590   10.8170    4.9390 N   0  0  0  0  0  0  0  0  0  0  0  0
   24.7464    9.1845    8.6779 H   0  0  0  0  0  0  0  0  0  0  0  0
   23.8606    9.4192    7.1330 H   0  0  0  0  0  0  0  0  0  0  0  0
   25.4708    8.6230    7.1330 H   0  0  0  0  0  0  0  0  0  0  0  0
   25.1842   11.4259    8.2302 H   0  0  0  0  0  0  0  0  0  0  0  0
   26.6114   10.6007    7.4659 H   0  0  0  0  0  0  0  0  0  0  0  0
   23.9723   13.1861    6.5730 H   0  0  0  0  0  0  0  0  0  0  0  0
   25.2428   14.2994    6.0407 H   0  0  0  0  0  0  0  0  0  0  0  0
   27.0973   16.4978    7.2118 H   0  0  0  0  0  0  0  0  0  0  0  0
   23.8434   15.5684    8.2800 H   0  0  0  0  0  0  0  0  0  0  0  0
   22.9929   15.7139   10.6335 H   0  0  0  0  0  0  0  0  0  0  0  0
   27.3648   17.8667    9.3643 H   0  0  0  0  0  0  0  0  0  0  0  0
   27.5203   17.7571   12.3447 H   0  0  0  0  0  0  0  0  0  0  0  0
   26.6310   19.2220   11.9984 H   0  0  0  0  0  0  0  0  0  0  0  0
   24.5967   18.1392   14.9417 H   0  0  0  0  0  0  0  0  0  0  0  0
   26.5847   16.7732   15.4899 H   0  0  0  0  0  0  0  0  0  0  0  0
   27.6571   18.1172   14.9725 H   0  0  0  0  0  0  0  0  0  0  0  0
   25.6042   18.1748   17.2397 H   0  0  0  0  0  0  0  0  0  0  0  0
   27.4067   18.1700   17.3939 H   0  0  0  0  0  0  0  0  0  0  0  0
   25.6331   21.5431   15.7069 H   0  0  0  0  0  0  0  0  0  0  0  0
   24.0704   18.5590    3.9449 H   0  0  0  0  0  0  0  0  0  0  0  0
   25.4108   11.4459    2.9041 H   0  0  0  0  0  0  0  0  0  0  0  0
  1  2  1  0
  2  3  1  0
  3  4  2  0
  4  5  1  0
  5  6  1  0
  6  7  2  0
  6  8  2  0
  6  9  1  0
  9 10  2  0
 10 11  1  0
 11 12  1  0
 12 13  1  0
 13 14  2  0
 14 15  1  0
 15 16  2  0
 16 17  1  0
 17 18  2  0
 17 19  1  0
 19 20  1  0
 20 21  1  0
 21 22  1  0
 22 23  1  0
 23 24  1  0
 24 25  2  0
 24 26  1  0
 26 27  1  0
 27 28  2  0
 20 29  1  0
 29 30  2  0
 11 31  2  0
 31 32  1  0
 32 33  2  0
  5 34  1  0
 34 35  2  0
 35  3  1  0
 33  9  1  0
 18 13  1  0
 27 21  1  0
 29 16  1  0
  1 36  1  0
  1 37  1  0
  1 38  1  0
  2 39  1  0
  2 40  1  0
  4 41  1  0
 10 42  1  0
 12 43  1  0
 14 44  1  0
 15 45  1  0
 18 46  1  0
 19 47  1  0
 19 48  1  0
 21 49  1  1
 22 50  1  0
 22 51  1  0
 23 52  1  0
 23 53  1  0
 26 54  1  0
 32 55  1  0
 34 56  1  0
M  END
>  <meeko>  (800) 
{"is_sidechain": [true], "free_energy": -11.42, "intermolecular_energy": 0.0, "internal_energy": -11.42, "cluster_size": 16, "cluster_id": 1, "rank_in_cluster": 1}

>  <_RMSD_MCS_to_ref>  (800) 
0.6559719675582348

$$$$
ligand
     RDKit          3D

 58 62  0  0  0  0  0  0  0  0999 V2000
   24.8540    9.4020    7.6050 C   0  0  0  0  0  0  0  0  0  0  0  0
   25.5230   10.7550    7.4270 C   0  0  0  0  0  0  0  0  0  0  0  0
   25.2720   11.3340    6.0780 C   0  0  0  0  0  0  0  0  0  0  0  0
   26.0870   12.1450    5.3150 C   0  0  0  0  0  0  0  0  0  0  0  0
   25.3710   12.3560    4.1720 N   0  0  0  0  0  0  0  0  0  0  0  0
   25.7770   13.4290    2.9460 S   0  0  0  0  0  6  0  0  0  0  0  0
   24.5410   13.7910    2.2840 O   0  0  0  0  0  0  0  0  0  0  0  0
   26.8940   12.8160    2.2470 O   0  0  0  0  0  0  0  0  0  0  0  0
   26.4030   14.8490    3.7970 C   0  0  0  0  0  0  0  0  0  0  0  0
   27.3140   15.7000    3.1550 C   0  0  0  0  0  0  0  0  0  0  0  0
   27.8080   16.8320    3.8040 C   0  0  0  0  0  0  0  0  0  0  0  0
   27.4130   17.1400    5.1120 C   0  0  0  0  0  0  0  0  0  0  0  0
   26.5140   16.2860    5.7820 C   0  0  0  0  0  0  0  0  0  0  0  0
   25.8980   16.2410    7.0670 C   0  0  0  0  0  0  0  0  0  0  0  0
   26.0570   17.2040    8.1750 C   0  0  0  0  0  0  0  0  0  0  0  0
   26.4450   18.3510    7.9850 O   0  0  0  0  0  0  0  0  0  0  0  0
   25.7140   16.6420    9.3900 N   0  0  0  0  0  0  0  0  0  0  0  0
   25.7370   17.2250   10.6670 C   0  0  0  0  0  0  0  0  0  0  0  0
   26.6820   18.1620   11.0780 C   0  0  0  0  0  0  0  0  0  0  0  0
   26.6370   18.6950   12.3720 C   0  0  0  0  0  0  0  0  0  0  0  0
   25.6460   18.2980   13.2820 C   0  0  0  0  0  0  0  0  0  0  0  0
   25.6040   18.9170   14.6690 C   0  0  1  0  0  0  0  0  0  0  0  0
   26.6760   18.2800   15.5600 C   0  0  0  0  0  0  0  0  0  0  0  0
   26.5900   18.8550   16.9630 C   0  0  0  0  0  0  0  0  0  0  0  0
   26.7270   20.3570   16.9440 C   0  0  0  0  0  0  0  0  0  0  0  0
   27.1420   20.9910   17.9080 O   0  0  0  0  0  0  0  0  0  0  0  0
   26.3020   20.9930   15.8050 N   0  0  0  0  0  0  0  0  0  0  0  0
   25.7470   20.4390   14.6730 C   0  0  0  0  0  0  0  0  0  0  0  0
   25.3530   21.1720   13.7690 O   0  0  0  0  0  0  0  0  0  0  0  0
   24.6940   17.3610   12.8600 C   0  0  0  0  0  0  0  0  0  0  0  0
   24.7440   16.8280   11.5680 C   0  0  0  0  0  0  0  0  0  0  0  0
   25.0940   15.1600    7.1880 N   0  0  0  0  0  0  0  0  0  0  0  0
   25.2160   14.5290    6.0080 N   0  0  0  0  0  0  0  0  0  0  0  0
   26.0380   15.1650    5.1140 C   0  0  0  0  0  0  0  0  0  0  0  0
   24.1710   11.7300    4.2730 C   0  0  0  0  0  0  0  0  0  0  0  0
   24.0810   11.0910    5.4210 N   0  0  0  0  0  0  0  0  0  0  0  0
   24.7464    9.1845    8.6779 H   0  0  0  0  0  0  0  0  0  0  0  0
   23.8606    9.4192    7.1330 H   0  0  0  0  0  0  0  0  0  0  0  0
   25.4708    8.6230    7.1330 H   0  0  0  0  0  0  0  0  0  0  0  0
   25.1315   11.4465    8.1876 H   0  0  0  0  0  0  0  0  0  0  0  0
   26.6082   10.6120    7.5363 H   0  0  0  0  0  0  0  0  0  0  0  0
   27.0846   12.5325    5.5694 H   0  0  0  0  0  0  0  0  0  0  0  0
   27.6423   15.4729    2.1300 H   0  0  0  0  0  0  0  0  0  0  0  0
   28.5169   17.4912    3.2816 H   0  0  0  0  0  0  0  0  0  0  0  0
   27.8008   18.0400    5.6117 H   0  0  0  0  0  0  0  0  0  0  0  0
   25.3986   15.6622    9.3538 H   0  0  0  0  0  0  0  0  0  0  0  0
   27.4692   18.4856   10.3811 H   0  0  0  0  0  0  0  0  0  0  0  0
   27.3897   19.4358   12.6795 H   0  0  0  0  0  0  0  0  0  0  0  0
   24.6018   18.7062   15.0706 H   0  0  0  0  0  0  0  0  0  0  0  0
   26.5170   17.1923   15.6011 H   0  0  0  0  0  0  0  0  0  0  0  0
   27.6700   18.4947   15.1407 H   0  0  0  0  0  0  0  0  0  0  0  0
   25.6169   18.5886   17.4013 H   0  0  0  0  0  0  0  0  0  0  0  0
   27.4119   18.4369   17.5627 H   0  0  0  0  0  0  0  0  0  0  0  0
   26.4123   22.0170   15.7954 H   0  0  0  0  0  0  0  0  0  0  0  0
   23.9000   17.0416   13.5510 H   0  0  0  0  0  0  0  0  0  0  0  0
   23.9928   16.0872   11.2566 H   0  0  0  0  0  0  0  0  0  0  0  0
   24.7339   13.6444    5.7938 H   0  0  0  0  0  0  0  0  0  0  0  0
   23.3845   11.7531    3.5043 H   0  0  0  0  0  0  0  0  0  0  0  0
  1  2  1  0
  2  3  1  0
  3  4  2  0
  4  5  1  0
  5  6  1  0
  6  7  2  0
  6  8  2  0
  6  9  1  0
  9 10  2  0
 10 11  1  0
 11 12  2  0
 12 13  1  0
 13 14  1  0
 14 15  1  0
 15 16  2  0
 15 17  1  0
 17 18  1  0
 18 19  2  0
 19 20  1  0
 20 21  2  0
 21 22  1  0
 22 23  1  0
 23 24  1  0
 24 25  1  0
 25 26  2  0
 25 27  1  0
 27 28  1  0
 28 29  2  0
 21 30  1  0
 30 31  2  0
 14 32  2  0
 32 33  1  0
 33 34  1  0
  5 35  1  0
 35 36  2  0
 36  3  1  0
 34  9  1  0
 34 13  2  0
 31 18  1  0
 28 22  1  0
  1 37  1  0
  1 38  1  0
  1 39  1  0
  2 40  1  0
  2 41  1  0
  4 42  1  0
 10 43  1  0
 11 44  1  0
 12 45  1  0
 17 46  1  0
 19 47  1  0
 20 48  1  0
 22 49  1  1
 23 50  1  0
 23 51  1  0
 24 52  1  0
 24 53  1  0
 27 54  1  0
 30 55  1  0
 31 56  1  0
 33 57  1  0
 35 58  1  0
M  END
>  <meeko>  (801) 
{"is_sidechain": [true], "free_energy": -11.42, "intermolecular_energy": 0.0, "internal_energy": -11.42, "cluster_size": 20, "cluster_id": 1, "rank_in_cluster": 1}

>  <_RMSD_MCS_to_ref>  (801) 
0.8572893327226224

$$$$
ligand
     RDKit          3D

 54 58  0  0  0  0  0  0  0  0999 V2000
   24.8540    9.4020    7.6050 C   0  0  0  0  0  0  0  0  0  0  0  0
   25.5230   10.7550    7.4270 C   0  0  0  0  0  0  0  0  0  0  0  0
   25.0830   11.4410    6.1820 C   0  0  0  0  0  0  0  0  0  0  0  0
   25.5050   12.6480    5.6580 C   0  0  0  0  0  0  0  0  0  0  0  0
   24.7530   12.8030    4.5290 N   0  0  0  0  0  0  0  0  0  0  0  0
   24.9930   13.9740    3.3400 S   0  0  0  0  0  6  0  0  0  0  0  0
   26.3790   13.8120    2.9390 O   0  0  0  0  0  0  0  0  0  0  0  0
   23.9050   13.7740    2.4000 O   0  0  0  0  0  0  0  0  0  0  0  0
   24.8090   15.4110    4.0840 O   0  0  0  0  0  0  0  0  0  0  0  0
   25.2380   15.6420    5.3690 C   0  0  0  0  0  0  0  0  0  0  0  0
   26.6140   15.9470    5.4790 C   0  0  0  0  0  0  0  0  0  0  0  0
   27.2120   16.2080    6.7170 C   0  0  0  0  0  0  0  0  0  0  0  0
   26.4140   16.1590    7.8450 C   0  0  0  0  0  0  0  0  0  0  0  0
   25.0320   15.8500    7.7180 C   0  0  0  0  0  0  0  0  0  0  0  0
   24.4270   15.5910    6.5070 C   0  0  0  0  0  0  0  0  0  0  0  0
   24.5310   15.8860    9.0460 C   0  0  0  0  0  0  0  0  0  0  0  0
   23.3900   15.7190    9.7370 N   0  0  0  0  0  0  0  0  0  0  0  0
   23.5820   15.9030   11.0710 N   0  0  0  0  0  0  0  0  0  0  0  0
   24.9050   16.1970   11.1940 C   0  0  0  0  0  0  0  0  0  0  0  0
   25.5290   16.4760   12.4920 C   0  0  0  0  0  0  0  0  0  0  0  0
   25.9290   15.5960   13.2490 O   0  0  0  0  0  0  0  0  0  0  0  0
   25.6330   17.8180   12.7740 N   0  0  0  0  0  0  0  0  0  0  0  0
   26.3660   18.3240   13.9160 C   0  0  2  0  0  0  0  0  0  0  0  0
   25.8750   17.7110   15.2230 C   0  0  0  0  0  0  0  0  0  0  0  0
   26.6670   18.2890   16.3860 C   0  0  0  0  0  0  0  0  0  0  0  0
   26.5830   19.7960   16.4100 C   0  0  0  0  0  0  0  0  0  0  0  0
   26.6020   20.4400   17.4550 O   0  0  0  0  0  0  0  0  0  0  0  0
   26.5210   20.4280   15.1940 N   0  0  0  0  0  0  0  0  0  0  0  0
   26.2100   19.8480   13.9870 C   0  0  0  0  0  0  0  0  0  0  0  0
   25.8550   20.5360   13.0320 O   0  0  0  0  0  0  0  0  0  0  0  0
   25.5210   16.1920    9.9330 C   0  0  0  0  0  0  0  0  0  0  0  0
   26.8540   16.4100    9.3040 C   0  0  0  0  0  0  0  0  0  0  0  0
   23.9840   11.6990    4.3500 C   0  0  0  0  0  0  0  0  0  0  0  0
   24.1420   10.8610    5.3530 N   0  0  0  0  0  0  0  0  0  0  0  0
   24.7464    9.1845    8.6779 H   0  0  0  0  0  0  0  0  0  0  0  0
   23.8606    9.4192    7.1330 H   0  0  0  0  0  0  0  0  0  0  0  0
   25.4708    8.6230    7.1330 H   0  0  0  0  0  0  0  0  0  0  0  0
   25.2718   11.3904    8.2891 H   0  0  0  0  0  0  0  0  0  0  0  0
   26.6079   10.5880    7.3548 H   0  0  0  0  0  0  0  0  0  0  0  0
   26.2712   13.3281    6.0586 H   0  0  0  0  0  0  0  0  0  0  0  0
   27.2302   15.9800    4.5684 H   0  0  0  0  0  0  0  0  0  0  0  0
   28.2837   16.4448    6.7904 H   0  0  0  0  0  0  0  0  0  0  0  0
   23.3548   15.3549    6.4388 H   0  0  0  0  0  0  0  0  0  0  0  0
   22.4835   15.4814    9.3096 H   0  0  0  0  0  0  0  0  0  0  0  0
   25.1703   18.4914   12.1468 H   0  0  0  0  0  0  0  0  0  0  0  0
   27.4229   18.0485   13.7854 H   0  0  0  0  0  0  0  0  0  0  0  0
   24.8076   17.9404   15.3569 H   0  0  0  0  0  0  0  0  0  0  0  0
   26.0156   16.6205   15.1910 H   0  0  0  0  0  0  0  0  0  0  0  0
   26.2614   17.8922   17.3284 H   0  0  0  0  0  0  0  0  0  0  0  0
   27.7219   18.0014   16.2654 H   0  0  0  0  0  0  0  0  0  0  0  0
   26.7279   21.4370   15.1844 H   0  0  0  0  0  0  0  0  0  0  0  0
   27.2316   17.4313    9.4603 H   0  0  0  0  0  0  0  0  0  0  0  0
   27.6841   15.7950    9.6816 H   0  0  0  0  0  0  0  0  0  0  0  0
   23.3220   11.5285    3.4882 H   0  0  0  0  0  0  0  0  0  0  0  0
  1  2  1  0
  2  3  1  0
  3  4  2  0
  4  5  1  0
  5  6  1  0
  6  7  2  0
  6  8  2  0
  6  9  1  0
  9 10  1  0
 10 11  2  0
 11 12  1  0
 12 13  2  0
 13 14  1  0
 14 15  2  0
 14 16  1  0
 16 17  1  0
 17 18  1  0
 18 19  2  0
 19 20  1  0
 20 21  2  0
 20 22  1  0
 22 23  1  0
 23 24  1  0
 24 25  1  0
 25 26  1  0
 26 27  2  0
 26 28  1  0
 28 29  1  0
 29 30  2  0
 19 31  1  0
 31 32  1  0
  5 33  1  0
 33 34  2  0
 34  3  1  0
 15 10  1  0
 31 16  2  0
 32 13  1  0
 29 23  1  0
  1 35  1  0
  1 36  1  0
  1 37  1  0
  2 38  1  0
  2 39  1  0
  4 40  1  0
 11 41  1  0
 12 42  1  0
 15 43  1  0
 17 44  1  0
 22 45  1  0
 23 46  1  6
 24 47  1  0
 24 48  1  0
 25 49  1  0
 25 50  1  0
 28 51  1  0
 32 52  1  0
 32 53  1  0
 33 54  1  0
M  END
>  <meeko>  (802) 
{"is_sidechain": [true], "free_energy": -11.42, "intermolecular_energy": 0.0, "internal_energy": -11.42, "cluster_size": 15, "cluster_id": 1, "rank_in_cluster": 1}

>  <_RMSD_MCS_to_ref>  (802) 
0.9981313652131268

$$$$
ligand
     RDKit          3D

 49 52  0  0  0  0  0  0  0  0999 V2000
   24.8710    9.6160    7.7820 C   0  0  0  0  0  0  0  0  0  0  0  0
   25.4240   10.9650    7.3490 C   0  0  0  0  0  0  0  0  0  0  0  0
   26.8010   11.1990    7.8610 C   0  0  0  0  0  0  0  0  0  0  0  0
   27.2140   11.9800    8.9220 C   0  0  0  0  0  0  0  0  0  0  0  0
   28.5690   11.8050    8.9620 N   0  0  0  0  0  0  0  0  0  0  0  0
   29.6510   12.7030    9.8900 S   0  0  0  0  0  6  0  0  0  0  0  0
   30.9570   12.3690    9.3560 O   0  0  0  0  0  0  0  0  0  0  0  0
   29.2860   12.4110   11.2630 O   0  0  0  0  0  0  0  0  0  0  0  0
   29.3210   14.2680    9.5670 O   0  0  0  0  0  0  0  0  0  0  0  0
   28.0500   14.7890    9.4810 C   0  0  0  0  0  0  0  0  0  0  0  0
   27.4940   14.6930    8.1380 C   0  0  0  0  0  0  0  0  0  0  0  0
   26.2580   15.1620    7.9040 C   0  0  0  0  0  0  0  0  0  0  0  0
   25.5160   15.7340    8.9370 N   0  0  0  0  0  0  0  0  0  0  0  0
   24.2650   16.2460    8.8500 N   0  0  0  0  0  0  0  0  0  0  0  0
   23.9910   16.6720   10.0830 C   0  0  0  0  0  0  0  0  0  0  0  0
   25.0350   16.4470   11.0060 C   0  0  0  0  0  0  0  0  0  0  0  0
   25.1160   16.7670   12.4220 C   0  0  0  0  0  0  0  0  0  0  0  0
   24.9540   15.9270   13.3030 O   0  0  0  0  0  0  0  0  0  0  0  0
   25.3750   18.0860   12.7180 N   0  0  0  0  0  0  0  0  0  0  0  0
   25.3350   18.5720   14.0890 C   0  0  1  0  0  0  0  0  0  0  0  0
   26.3510   17.8690   14.9840 C   0  0  0  0  0  0  0  0  0  0  0  0
   26.2840   18.4550   16.3860 C   0  0  0  0  0  0  0  0  0  0  0  0
   26.4920   19.9520   16.3640 C   0  0  0  0  0  0  0  0  0  0  0  0
   27.0640   20.5510   17.2700 O   0  0  0  0  0  0  0  0  0  0  0  0
   25.9820   20.6280   15.2850 N   0  0  0  0  0  0  0  0  0  0  0  0
   25.6410   20.0720   14.0770 C   0  0  0  0  0  0  0  0  0  0  0  0
   25.5780   20.7530   13.0540 O   0  0  0  0  0  0  0  0  0  0  0  0
   26.0150   15.8430   10.2360 C   0  0  0  0  0  0  0  0  0  0  0  0
   27.3350   15.3440   10.4860 C   0  0  0  0  0  0  0  0  0  0  0  0
   28.9440   11.0210    7.9180 C   0  0  0  0  0  0  0  0  0  0  0  0
   27.8900   10.6150    7.2420 N   0  0  0  0  0  0  0  0  0  0  0  0
   24.8497    9.5640    8.8806 H   0  0  0  0  0  0  0  0  0  0  0  0
   23.8507    9.4948    7.3893 H   0  0  0  0  0  0  0  0  0  0  0  0
   25.5127    8.8135    7.3893 H   0  0  0  0  0  0  0  0  0  0  0  0
   25.4436   11.0034    6.2498 H   0  0  0  0  0  0  0  0  0  0  0  0
   24.7717   11.7466    7.7657 H   0  0  0  0  0  0  0  0  0  0  0  0
   26.5937   12.6016    9.5844 H   0  0  0  0  0  0  0  0  0  0  0  0
   28.0805   14.2412    7.3244 H   0  0  0  0  0  0  0  0  0  0  0  0
   25.8288   15.0948    6.8934 H   0  0  0  0  0  0  0  0  0  0  0  0
   23.0404   17.1537   10.3557 H   0  0  0  0  0  0  0  0  0  0  0  0
   25.6011   18.7406   11.9556 H   0  0  0  0  0  0  0  0  0  0  0  0
   24.3343   18.3648   14.4960 H   0  0  0  0  0  0  0  0  0  0  0  0
   26.1216   16.7940   15.0247 H   0  0  0  0  0  0  0  0  0  0  0  0
   27.3617   18.0134   14.5745 H   0  0  0  0  0  0  0  0  0  0  0  0
   25.2969   18.2364   16.8193 H   0  0  0  0  0  0  0  0  0  0  0  0
   27.0827   18.0015   16.9913 H   0  0  0  0  0  0  0  0  0  0  0  0
   25.8425   21.6430   15.3904 H   0  0  0  0  0  0  0  0  0  0  0  0
   27.7667   15.4124   11.4954 H   0  0  0  0  0  0  0  0  0  0  0  0
   29.9842   10.7614    7.6717 H   0  0  0  0  0  0  0  0  0  0  0  0
  1  2  1  0
  2  3  1  0
  3  4  2  0
  4  5  1  0
  5  6  1  0
  6  7  2  0
  6  8  2  0
  6  9  1  0
  9 10  1  0
 10 11  1  0
 11 12  2  0
 12 13  1  0
 13 14  1  0
 14 15  2  0
 15 16  1  0
 16 17  1  0
 17 18  2  0
 17 19  1  0
 19 20  1  0
 20 21  1  0
 21 22  1  0
 22 23  1  0
 23 24  2  0
 23 25  1  0
 25 26  1  0
 26 27  2  0
 16 28  2  0
 28 29  1  0
  5 30  1  0
 30 31  2  0
 31  3  1  0
 29 10  2  0
 28 13  1  0
 26 20  1  0
  1 32  1  0
  1 33  1  0
  1 34  1  0
  2 35  1  0
  2 36  1  0
  4 37  1  0
 11 38  1  0
 12 39  1  0
 15 40  1  0
 19 41  1  0
 20 42  1  1
 21 43  1  0
 21 44  1  0
 22 45  1  0
 22 46  1  0
 25 47  1  0
 29 48  1  0
 30 49  1  0
M  END
>  <meeko>  (803) 
{"is_sidechain": [true], "free_energy": -11.42, "intermolecular_energy": 0.0, "internal_energy": -11.42, "cluster_size": 16, "cluster_id": 1, "rank_in_cluster": 1}

>  <_RMSD_MCS_to_ref>  (803) 
0.7781059625069635

$$$$
ligand
     RDKit          3D

 48 51  0  0  0  0  0  0  0  0999 V2000
   24.8710    9.6160    7.7820 C   0  0  0  0  0  0  0  0  0  0  0  0
   25.4240   10.9650    7.3490 C   0  0  0  0  0  0  0  0  0  0  0  0
   26.4920   11.4520    8.2640 C   0  0  0  0  0  0  0  0  0  0  0  0
   27.2930   12.5710    8.1460 C   0  0  0  0  0  0  0  0  0  0  0  0
   28.0890   12.5290    9.2550 N   0  0  0  0  0  0  0  0  0  0  0  0
   29.2210   13.7000    9.6930 S   0  0  0  0  0  6  0  0  0  0  0  0
   29.6830   13.3360   11.0200 O   0  0  0  0  0  0  0  0  0  0  0  0
   30.1460   13.7150    8.5720 O   0  0  0  0  0  0  0  0  0  0  0  0
   28.4980   15.1540    9.7440 O   0  0  0  0  0  0  0  0  0  0  0  0
   27.2100   15.2750   10.0170 C   0  0  0  0  0  0  0  0  0  0  0  0
   26.2660   14.8880    9.1980 N   0  0  0  0  0  0  0  0  0  0  0  0
   25.0250   15.1820    9.7350 C   0  0  0  0  0  0  0  0  0  0  0  0
   23.7900   14.9000    9.1160 C   0  0  0  0  0  0  0  0  0  0  0  0
   22.5950   15.2420    9.7490 C   0  0  0  0  0  0  0  0  0  0  0  0
   22.6160   15.8590   10.9950 C   0  0  0  0  0  0  0  0  0  0  0  0
   23.8340   16.1490   11.6380 C   0  0  0  0  0  0  0  0  0  0  0  0
   23.8370   16.8290   12.9550 C   0  0  0  0  0  0  0  0  0  0  0  0
   22.9100   16.6920   13.7410 O   0  0  0  0  0  0  0  0  0  0  0  0
   24.9330   17.6220   13.2160 N   0  0  0  0  0  0  0  0  0  0  0  0
   24.9820   18.4710   14.3990 C   0  0  1  0  0  0  0  0  0  0  0  0
   25.7030   17.7990   15.5630 C   0  0  0  0  0  0  0  0  0  0  0  0
   25.7530   18.7530   16.7460 C   0  0  0  0  0  0  0  0  0  0  0  0
   26.3970   20.0660   16.3650 C   0  0  0  0  0  0  0  0  0  0  0  0
   27.0850   20.7150   17.1480 O   0  0  0  0  0  0  0  0  0  0  0  0
   26.1540   20.5240   15.0950 N   0  0  0  0  0  0  0  0  0  0  0  0
   25.7170   19.7660   14.0390 C   0  0  0  0  0  0  0  0  0  0  0  0
   25.9010   20.1240   12.8750 O   0  0  0  0  0  0  0  0  0  0  0  0
   25.0370   15.8050   10.9880 C   0  0  0  0  0  0  0  0  0  0  0  0
   26.6880   15.9950   11.4700 S   0  0  0  0  0  0  0  0  0  0  0  0
   27.7590   11.4450   10.0030 C   0  0  0  0  0  0  0  0  0  0  0  0
   26.7940   10.7610    9.4220 N   0  0  0  0  0  0  0  0  0  0  0  0
   24.8497    9.5640    8.8806 H   0  0  0  0  0  0  0  0  0  0  0  0
   23.8507    9.4948    7.3893 H   0  0  0  0  0  0  0  0  0  0  0  0
   25.5127    8.8135    7.3893 H   0  0  0  0  0  0  0  0  0  0  0  0
   25.8416   10.8685    6.3359 H   0  0  0  0  0  0  0  0  0  0  0  0
   24.5994   11.6927    7.3731 H   0  0  0  0  0  0  0  0  0  0  0  0
   27.2904   13.3231    7.3433 H   0  0  0  0  0  0  0  0  0  0  0  0
   23.7688   14.4092    8.1318 H   0  0  0  0  0  0  0  0  0  0  0  0
   21.6336   15.0231    9.2613 H   0  0  0  0  0  0  0  0  0  0  0  0
   21.6675   16.1241   11.4850 H   0  0  0  0  0  0  0  0  0  0  0  0
   25.7306   17.6145   12.5643 H   0  0  0  0  0  0  0  0  0  0  0  0
   23.9485   18.6712   14.7182 H   0  0  0  0  0  0  0  0  0  0  0  0
   25.1623   16.8854   15.8511 H   0  0  0  0  0  0  0  0  0  0  0  0
   26.7273   17.5378   15.2586 H   0  0  0  0  0  0  0  0  0  0  0  0
   24.7277   18.9447   17.0954 H   0  0  0  0  0  0  0  0  0  0  0  0
   26.3546   18.2889   17.5414 H   0  0  0  0  0  0  0  0  0  0  0  0
   26.3140   21.5262   14.9189 H   0  0  0  0  0  0  0  0  0  0  0  0
   28.2308   11.1756   10.9595 H   0  0  0  0  0  0  0  0  0  0  0  0
  1  2  1  0
  2  3  1  0
  3  4  2  0
  4  5  1  0
  5  6  1  0
  6  7  2  0
  6  8  2  0
  6  9  1  0
  9 10  1  0
 10 11  2  0
 11 12  1  0
 12 13  2  0
 13 14  1  0
 14 15  2  0
 15 16  1  0
 16 17  1  0
 17 18  2  0
 17 19  1  0
 19 20  1  0
 20 21  1  0
 21 22  1  0
 22 23  1  0
 23 24  2  0
 23 25  1  0
 25 26  1  0
 26 27  2  0
 16 28  2  0
 28 29  1  0
  5 30  1  0
 30 31  2  0
 31  3  1  0
 29 10  1  0
 28 12  1  0
 26 20  1  0
  1 32  1  0
  1 33  1  0
  1 34  1  0
  2 35  1  0
  2 36  1  0
  4 37  1  0
 13 38  1  0
 14 39  1  0
 15 40  1  0
 19 41  1  0
 20 42  1  1
 21 43  1  0
 21 44  1  0
 22 45  1  0
 22 46  1  0
 25 47  1  0
 30 48  1  0
M  END
>  <meeko>  (804) 
{"is_sidechain": [true], "free_energy": -11.42, "intermolecular_energy": 0.0, "internal_energy": -11.42, "cluster_size": 5, "cluster_id": 1, "rank_in_cluster": 1}

>  <_RMSD_MCS_to_ref>  (804) 
0.6602361530375151

$$$$
ligand
     RDKit          3D

 59 64  0  0  0  0  0  0  0  0999 V2000
   24.8540    9.4020    7.6050 C   0  0  0  0  0  0  0  0  0  0  0  0
   25.5230   10.7550    7.4270 C   0  0  0  0  0  0  0  0  0  0  0  0
   25.2090   11.3690    6.1070 C   0  0  0  0  0  0  0  0  0  0  0  0
   24.6160   12.5860    5.8340 C   0  0  0  0  0  0  0  0  0  0  0  0
   24.5560   12.6300    4.4720 N   0  0  0  0  0  0  0  0  0  0  0  0
   24.1300   13.9710    3.5530 S   0  0  0  0  0  6  0  0  0  0  0  0
   24.7820   13.8100    2.2690 O   0  0  0  0  0  0  0  0  0  0  0  0
   22.6900   14.0930    3.6920 O   0  0  0  0  0  0  0  0  0  0  0  0
   24.8870   15.3250    4.4090 C   0  0  0  0  0  0  0  0  0  0  0  0
   24.7690   15.3970    5.8080 C   0  0  0  0  0  0  0  0  0  0  0  0
   25.3210   16.4590    6.5420 C   0  0  0  0  0  0  0  0  0  0  0  0
   25.1710   16.5190    8.0060 C   0  0  0  0  0  0  0  0  0  0  0  0
   24.0360   15.9430    8.6410 C   0  0  0  0  0  0  0  0  0  0  0  0
   23.8640   15.9850   10.0310 C   0  0  0  0  0  0  0  0  0  0  0  0
   24.8480   16.6100   10.7670 C   0  0  0  0  0  0  0  0  0  0  0  0
   25.9550   17.1770   10.1690 C   0  0  0  0  0  0  0  0  0  0  0  0
   26.1470   17.1510    8.8000 C   0  0  0  0  0  0  0  0  0  0  0  0
   26.7780   17.7570   11.2280 C   0  0  0  0  0  0  0  0  0  0  0  0
   27.8160   18.3610   11.0360 O   0  0  0  0  0  0  0  0  0  0  0  0
   26.1500   17.4780   12.4120 N   0  0  0  0  0  0  0  0  0  0  0  0
   26.5950   18.0260   13.6840 C   0  0  2  0  0  0  0  0  0  0  0  0
   25.9220   17.4060   14.9050 C   0  0  0  0  0  0  0  0  0  0  0  0
   26.4970   18.0340   16.1670 C   0  0  0  0  0  0  0  0  0  0  0  0
   26.3420   19.5370   16.1510 C   0  0  0  0  0  0  0  0  0  0  0  0
   26.2520   20.1980   17.1820 O   0  0  0  0  0  0  0  0  0  0  0  0
   26.3640   20.1450   14.9200 N   0  0  0  0  0  0  0  0  0  0  0  0
   26.3860   19.5450   13.6810 C   0  0  0  0  0  0  0  0  0  0  0  0
   26.3000   20.2220   12.6580 O   0  0  0  0  0  0  0  0  0  0  0  0
   24.9620   16.8330   12.2070 C   0  0  0  0  0  0  0  0  0  0  0  0
   24.1160   16.5020   13.0160 O   0  0  0  0  0  0  0  0  0  0  0  0
   26.0210   17.4680    5.8500 C   0  0  0  0  0  0  0  0  0  0  0  0
   26.1710   17.4080    4.4490 C   0  0  0  0  0  0  0  0  0  0  0  0
   26.8060   18.2400    3.4880 C   0  0  0  0  0  0  0  0  0  0  0  0
   26.6280   17.6630    2.2510 C   0  0  0  0  0  0  0  0  0  0  0  0
   25.9100   16.5120    2.4240 N   0  0  0  0  0  0  0  0  0  0  0  0
   25.6070   16.3370    3.7590 C   0  0  0  0  0  0  0  0  0  0  0  0
   25.1250   11.5060    3.9630 C   0  0  0  0  0  0  0  0  0  0  0  0
   25.5300   10.7140    4.9340 N   0  0  0  0  0  0  0  0  0  0  0  0
   24.7464    9.1845    8.6779 H   0  0  0  0  0  0  0  0  0  0  0  0
   23.8606    9.4192    7.1330 H   0  0  0  0  0  0  0  0  0  0  0  0
   25.4708    8.6230    7.1330 H   0  0  0  0  0  0  0  0  0  0  0  0
   25.1751   11.4296    8.2231 H   0  0  0  0  0  0  0  0  0  0  0  0
   26.6112   10.6028    7.4781 H   0  0  0  0  0  0  0  0  0  0  0  0
   24.2711   13.3458    6.5507 H   0  0  0  0  0  0  0  0  0  0  0  0
   24.2300   14.6003    6.3417 H   0  0  0  0  0  0  0  0  0  0  0  0
   23.2710   15.4503    8.0229 H   0  0  0  0  0  0  0  0  0  0  0  0
   22.9822   15.5387   10.5139 H   0  0  0  0  0  0  0  0  0  0  0  0
   27.0364   17.6107    8.3444 H   0  0  0  0  0  0  0  0  0  0  0  0
   27.6621   17.7752   13.7760 H   0  0  0  0  0  0  0  0  0  0  0  0
   24.8387   17.5923   14.8622 H   0  0  0  0  0  0  0  0  0  0  0  0
   26.1042   16.3213   14.9162 H   0  0  0  0  0  0  0  0  0  0  0  0
   25.9683   17.6284   17.0422 H   0  0  0  0  0  0  0  0  0  0  0  0
   27.5698   17.7957   16.2160 H   0  0  0  0  0  0  0  0  0  0  0  0
   26.3641   21.1750   14.9240 H   0  0  0  0  0  0  0  0  0  0  0  0
   26.4546   18.3107    6.4084 H   0  0  0  0  0  0  0  0  0  0  0  0
   27.3434   19.1771    3.6954 H   0  0  0  0  0  0  0  0  0  0  0  0
   26.9977   18.0577    1.2931 H   0  0  0  0  0  0  0  0  0  0  0  0
   25.6352   15.8690    1.6677 H   0  0  0  0  0  0  0  0  0  0  0  0
   25.2323   11.2881    2.8901 H   0  0  0  0  0  0  0  0  0  0  0  0
  1  2  1  0
  2  3  1  0
  3  4  2  0
  4  5  1  0
  5  6  1  0
  6  7  2  0
  6  8  2  0
  6  9  1  0
  9 10  2  0
 10 11  1  0
 11 12  1  0
 12 13  2  0
 13 14  1  0
 14 15  2  0
 15 16  1  0
 16 17  2  0
 16 18  1  0
 18 19  2  0
 18 20  1  0
 20 21  1  0
 21 22  1  0
 22 23  1  0
 23 24  1  0
 24 25  2  0
 24 26  1  0
 26 27  1  0
 27 28  2  0
 20 29  1  0
 29 30  2  0
 11 31  2  0
 31 32  1  0
 32 33  1  0
 33 34  2  0
 34 35  1  0
 35 36  1  0
  5 37  1  0
 37 38  2  0
 38  3  1  0
 36  9  1  0
 17 12  1  0
 27 21  1  0
 36 32  2  0
 29 15  1  0
  1 39  1  0
  1 40  1  0
  1 41  1  0
  2 42  1  0
  2 43  1  0
  4 44  1  0
 10 45  1  0
 13 46  1  0
 14 47  1  0
 17 48  1  0
 21 49  1  1
 22 50  1  0
 22 51  1  0
 23 52  1  0
 23 53  1  0
 26 54  1  0
 31 55  1  0
 33 56  1  0
 34 57  1  0
 35 58  1  0
 37 59  1  0
M  END
>  <meeko>  (805) 
{"is_sidechain": [true], "free_energy": -11.41, "intermolecular_energy": 0.0, "internal_energy": -11.41, "cluster_size": 20, "cluster_id": 1, "rank_in_cluster": 1}

>  <_RMSD_MCS_to_ref>  (805) 
1.3711442909725673

$$$$
ligand
     RDKit          3D

 47 50  0  0  0  0  0  0  0  0999 V2000
   24.8710    9.6160    7.7820 C   0  0  0  0  0  0  0  0  0  0  0  0
   25.4240   10.9650    7.3490 C   0  0  0  0  0  0  0  0  0  0  0  0
   26.8350   11.1570    7.7800 C   0  0  0  0  0  0  0  0  0  0  0  0
   27.3420   12.0220    8.7300 C   0  0  0  0  0  0  0  0  0  0  0  0
   28.6860   11.7800    8.7170 N   0  0  0  0  0  0  0  0  0  0  0  0
   29.8300   12.5430    9.6920 S   0  0  0  0  0  6  0  0  0  0  0  0
   29.4130   12.3180   11.0660 O   0  0  0  0  0  0  0  0  0  0  0  0
   31.0930   12.0010    9.2160 O   0  0  0  0  0  0  0  0  0  0  0  0
   29.8410   14.1370    9.3680 O   0  0  0  0  0  0  0  0  0  0  0  0
   28.6650   14.8070    9.1540 C   0  0  0  0  0  0  0  0  0  0  0  0
   28.2820   15.7310   10.1110 C   0  0  0  0  0  0  0  0  0  0  0  0
   27.1050   16.4590    9.9090 C   0  0  0  0  0  0  0  0  0  0  0  0
   26.6850   17.4270   10.9040 C   0  0  0  0  0  0  0  0  0  0  0  0
   25.8270   17.2280   11.9640 C   0  0  0  0  0  0  0  0  0  0  0  0
   25.7710   18.4470   12.5780 N   0  0  0  0  0  0  0  0  0  0  0  0
   25.0230   18.8090   13.7660 C   0  0  1  0  0  0  0  0  0  0  0  0
   25.3950   18.0130   15.0190 C   0  0  0  0  0  0  0  0  0  0  0  0
   26.6840   18.5000   15.6660 C   0  0  0  0  0  0  0  0  0  0  0  0
   26.6740   19.9910   15.8840 C   0  0  0  0  0  0  0  0  0  0  0  0
   27.2960   20.5270   16.7970 O   0  0  0  0  0  0  0  0  0  0  0  0
   25.9500   20.7420   14.9910 N   0  0  0  0  0  0  0  0  0  0  0  0
   25.1040   20.3010   14.0030 C   0  0  0  0  0  0  0  0  0  0  0  0
   24.4430   21.1040   13.3440 O   0  0  0  0  0  0  0  0  0  0  0  0
   26.5470   19.3450   11.9500 N   0  0  0  0  0  0  0  0  0  0  0  0
   27.1170   18.7300   10.9240 N   0  0  0  0  0  0  0  0  0  0  0  0
   26.3730   16.2290    8.7420 C   0  0  0  0  0  0  0  0  0  0  0  0
   26.8470   15.2910    7.8390 C   0  0  0  0  0  0  0  0  0  0  0  0
   27.9780   14.5800    8.0220 N   0  0  0  0  0  0  0  0  0  0  0  0
   28.9590   10.8140    7.8020 C   0  0  0  0  0  0  0  0  0  0  0  0
   27.8520   10.4140    7.2100 N   0  0  0  0  0  0  0  0  0  0  0  0
   24.8497    9.5640    8.8806 H   0  0  0  0  0  0  0  0  0  0  0  0
   23.8507    9.4948    7.3893 H   0  0  0  0  0  0  0  0  0  0  0  0
   25.5127    8.8135    7.3893 H   0  0  0  0  0  0  0  0  0  0  0  0
   25.3761   11.0322    6.2521 H   0  0  0  0  0  0  0  0  0  0  0  0
   24.8155   11.7484    7.8243 H   0  0  0  0  0  0  0  0  0  0  0  0
   26.7901   12.7406    9.3537 H   0  0  0  0  0  0  0  0  0  0  0  0
   28.8915   15.8896   11.0128 H   0  0  0  0  0  0  0  0  0  0  0  0
   25.3073   16.3015   12.2497 H   0  0  0  0  0  0  0  0  0  0  0  0
   23.9779   18.5307   13.5654 H   0  0  0  0  0  0  0  0  0  0  0  0
   24.5781   18.1058   15.7498 H   0  0  0  0  0  0  0  0  0  0  0  0
   25.5521   16.9681   14.7131 H   0  0  0  0  0  0  0  0  0  0  0  0
   26.8056   17.9992   16.6378 H   0  0  0  0  0  0  0  0  0  0  0  0
   27.5174   18.2597   14.9894 H   0  0  0  0  0  0  0  0  0  0  0  0
   26.0544   21.7635   15.0723 H   0  0  0  0  0  0  0  0  0  0  0  0
   25.4416   16.7798    8.5443 H   0  0  0  0  0  0  0  0  0  0  0  0
   26.2676   15.1164    6.9204 H   0  0  0  0  0  0  0  0  0  0  0  0
   29.9633   10.4208    7.5856 H   0  0  0  0  0  0  0  0  0  0  0  0
  1  2  1  0
  2  3  1  0
  3  4  2  0
  4  5  1  0
  5  6  1  0
  6  7  2  0
  6  8  2  0
  6  9  1  0
  9 10  1  0
 10 11  2  0
 11 12  1  0
 12 13  1  0
 13 14  2  0
 14 15  1  0
 15 16  1  0
 16 17  1  0
 17 18  1  0
 18 19  1  0
 19 20  2  0
 19 21  1  0
 21 22  1  0
 22 23  2  0
 15 24  1  0
 24 25  2  0
 12 26  2  0
 26 27  1  0
 27 28  2  0
  5 29  1  0
 29 30  2  0
 30  3  1  0
 28 10  1  0
 25 13  1  0
 22 16  1  0
  1 31  1  0
  1 32  1  0
  1 33  1  0
  2 34  1  0
  2 35  1  0
  4 36  1  0
 11 37  1  0
 14 38  1  0
 16 39  1  6
 17 40  1  0
 17 41  1  0
 18 42  1  0
 18 43  1  0
 21 44  1  0
 26 45  1  0
 27 46  1  0
 29 47  1  0
M  END
>  <meeko>  (806) 
{"is_sidechain": [true], "free_energy": -11.41, "intermolecular_energy": 0.0, "internal_energy": -11.41, "cluster_size": 16, "cluster_id": 1, "rank_in_cluster": 1}

>  <_RMSD_MCS_to_ref>  (806) 
0.9578976400894246

$$$$
ligand
     RDKit          3D

 51 54  0  0  0  0  0  0  0  0999 V2000
   24.8710    9.6160    7.7820 C   0  0  0  0  0  0  0  0  0  0  0  0
   25.4240   10.9650    7.3490 C   0  0  0  0  0  0  0  0  0  0  0  0
   26.4650   11.4730    8.2830 C   0  0  0  0  0  0  0  0  0  0  0  0
   27.3750   12.4950    8.0980 C   0  0  0  0  0  0  0  0  0  0  0  0
   28.0880   12.5210    9.2620 N   0  0  0  0  0  0  0  0  0  0  0  0
   29.3280   13.6040    9.6260 S   0  0  0  0  0  6  0  0  0  0  0  0
   30.0290   13.0510   10.7710 O   0  0  0  0  0  0  0  0  0  0  0  0
   30.0160   13.7630    8.3560 O   0  0  0  0  0  0  0  0  0  0  0  0
   28.6860   15.0420   10.0080 O   0  0  0  0  0  0  0  0  0  0  0  0
   27.3280   15.1640   10.0930 C   0  0  0  0  0  0  0  0  0  0  0  0
   26.5670   14.7760    9.0620 N   0  0  0  0  0  0  0  0  0  0  0  0
   25.2540   14.9810    9.2170 C   0  0  0  0  0  0  0  0  0  0  0  0
   24.6780   15.5600   10.3220 C   0  0  0  0  0  0  0  0  0  0  0  0
   25.5450   15.9590   11.3020 C   0  0  0  0  0  0  0  0  0  0  0  0
   25.0730   16.6570   12.5410 C   0  0  0  0  0  0  0  0  0  0  0  0
   23.9060   16.6170   12.9120 O   0  0  0  0  0  0  0  0  0  0  0  0
   26.0520   17.3580   13.2100 N   0  0  0  0  0  0  0  0  0  0  0  0
   25.7610   18.2270   14.3360 C   0  0  1  0  0  0  0  0  0  0  0  0
   26.3150   17.6720   15.6430 C   0  0  0  0  0  0  0  0  0  0  0  0
   25.9980   18.6340   16.7780 C   0  0  0  0  0  0  0  0  0  0  0  0
   26.5280   20.0190   16.4880 C   0  0  0  0  0  0  0  0  0  0  0  0
   26.9290   20.7680   17.3720 O   0  0  0  0  0  0  0  0  0  0  0  0
   26.5080   20.4210   15.1750 N   0  0  0  0  0  0  0  0  0  0  0  0
   26.3740   19.6080   14.0770 C   0  0  0  0  0  0  0  0  0  0  0  0
   26.7140   19.9940   12.9590 O   0  0  0  0  0  0  0  0  0  0  0  0
   26.8870   15.7700   11.2090 N   0  0  0  0  0  0  0  0  0  0  0  0
   23.2030   15.6810   10.1700 C   0  0  0  0  0  0  0  0  0  0  0  0
   22.9420   14.7000    9.0130 C   0  0  0  0  0  0  0  0  0  0  0  0
   24.2230   14.6620    8.1710 C   0  0  0  0  0  0  0  0  0  0  0  0
   27.6170   11.5620   10.0990 C   0  0  0  0  0  0  0  0  0  0  0  0
   26.6230   10.9060    9.5330 N   0  0  0  0  0  0  0  0  0  0  0  0
   24.8497    9.5640    8.8806 H   0  0  0  0  0  0  0  0  0  0  0  0
   23.8507    9.4948    7.3893 H   0  0  0  0  0  0  0  0  0  0  0  0
   25.5127    8.8135    7.3893 H   0  0  0  0  0  0  0  0  0  0  0  0
   25.8672   10.8610    6.3476 H   0  0  0  0  0  0  0  0  0  0  0  0
   24.5926   11.6852    7.3467 H   0  0  0  0  0  0  0  0  0  0  0  0
   27.4973   13.1401    7.2154 H   0  0  0  0  0  0  0  0  0  0  0  0
   27.0292   17.2618   12.8991 H   0  0  0  0  0  0  0  0  0  0  0  0
   24.6677   18.2971   14.4347 H   0  0  0  0  0  0  0  0  0  0  0  0
   25.8541   16.6951   15.8510 H   0  0  0  0  0  0  0  0  0  0  0  0
   27.4052   17.5527   15.5575 H   0  0  0  0  0  0  0  0  0  0  0  0
   24.9070   18.6878   16.9080 H   0  0  0  0  0  0  0  0  0  0  0  0
   26.4811   18.2620   17.6935 H   0  0  0  0  0  0  0  0  0  0  0  0
   26.6028   21.4310   14.9967 H   0  0  0  0  0  0  0  0  0  0  0  0
   22.6766   15.3740   11.0857 H   0  0  0  0  0  0  0  0  0  0  0  0
   22.8504   16.7059    9.9821 H   0  0  0  0  0  0  0  0  0  0  0  0
   22.7182   13.6982    9.4084 H   0  0  0  0  0  0  0  0  0  0  0  0
   22.0804   15.0205    8.4089 H   0  0  0  0  0  0  0  0  0  0  0  0
   24.3881   13.6683    7.7290 H   0  0  0  0  0  0  0  0  0  0  0  0
   24.2223   15.3440    7.3079 H   0  0  0  0  0  0  0  0  0  0  0  0
   28.0090   11.3605   11.1068 H   0  0  0  0  0  0  0  0  0  0  0  0
  1  2  1  0
  2  3  1  0
  3  4  2  0
  4  5  1  0
  5  6  1  0
  6  7  2  0
  6  8  2  0
  6  9  1  0
  9 10  1  0
 10 11  2  0
 11 12  1  0
 12 13  2  0
 13 14  1  0
 14 15  1  0
 15 16  2  0
 15 17  1  0
 17 18  1  0
 18 19  1  0
 19 20  1  0
 20 21  1  0
 21 22  2  0
 21 23  1  0
 23 24  1  0
 24 25  2  0
 14 26  2  0
 13 27  1  0
 27 28  1  0
 28 29  1  0
  5 30  1  0
 30 31  2  0
 31  3  1  0
 26 10  1  0
 29 12  1  0
 24 18  1  0
  1 32  1  0
  1 33  1  0
  1 34  1  0
  2 35  1  0
  2 36  1  0
  4 37  1  0
 17 38  1  0
 18 39  1  1
 19 40  1  0
 19 41  1  0
 20 42  1  0
 20 43  1  0
 23 44  1  0
 27 45  1  0
 27 46  1  0
 28 47  1  0
 28 48  1  0
 29 49  1  0
 29 50  1  0
 30 51  1  0
M  END
>  <meeko>  (807) 
{"is_sidechain": [true], "free_energy": -11.41, "intermolecular_energy": 0.0, "internal_energy": -11.41, "cluster_size": 17, "cluster_id": 1, "rank_in_cluster": 1}

>  <_RMSD_MCS_to_ref>  (807) 
1.1134828741885119

$$$$
ligand
     RDKit          3D

 47 50  0  0  0  0  0  0  0  0999 V2000
   24.8710    9.6160    7.7820 C   0  0  0  0  0  0  0  0  0  0  0  0
   25.4240   10.9650    7.3490 C   0  0  0  0  0  0  0  0  0  0  0  0
   26.4530   11.4790    8.2930 C   0  0  0  0  0  0  0  0  0  0  0  0
   27.1310   12.6810    8.2680 C   0  0  0  0  0  0  0  0  0  0  0  0
   27.9370   12.6340    9.3700 N   0  0  0  0  0  0  0  0  0  0  0  0
   29.1720   13.7300    9.7190 S   0  0  0  0  0  6  0  0  0  0  0  0
   29.7020   13.2690   10.9890 O   0  0  0  0  0  0  0  0  0  0  0  0
   30.0020   13.7690    8.5300 O   0  0  0  0  0  0  0  0  0  0  0  0
   28.4650   15.1810    9.9620 O   0  0  0  0  0  0  0  0  0  0  0  0
   27.1550   15.3560   10.1460 C   0  0  0  0  0  0  0  0  0  0  0  0
   26.0660   15.0540    9.3570 C   0  0  0  0  0  0  0  0  0  0  0  0
   24.8230   15.4140    9.9560 C   0  0  0  0  0  0  0  0  0  0  0  0
   23.6120   15.2080    9.3850 N   0  0  0  0  0  0  0  0  0  0  0  0
   22.5730   15.6160   10.1140 C   0  0  0  0  0  0  0  0  0  0  0  0
   22.6140   16.1940   11.3180 N   0  0  0  0  0  0  0  0  0  0  0  0
   23.8350   16.3980   11.8830 C   0  0  0  0  0  0  0  0  0  0  0  0
   23.8380   17.0400   13.2300 C   0  0  0  0  0  0  0  0  0  0  0  0
   22.8860   16.9850   13.9980 O   0  0  0  0  0  0  0  0  0  0  0  0
   25.0010   17.7170   13.5330 N   0  0  0  0  0  0  0  0  0  0  0  0
   25.1360   18.5450   14.7180 C   0  0  1  0  0  0  0  0  0  0  0  0
   25.9790   17.8700   15.7960 C   0  0  0  0  0  0  0  0  0  0  0  0
   26.1030   18.7940   16.9960 C   0  0  0  0  0  0  0  0  0  0  0  0
   26.6690   20.1370   16.6000 C   0  0  0  0  0  0  0  0  0  0  0  0
   27.3900   20.7940   17.3440 O   0  0  0  0  0  0  0  0  0  0  0  0
   26.3090   20.6140   15.3640 N   0  0  0  0  0  0  0  0  0  0  0  0
   25.7930   19.8740   14.3290 C   0  0  0  0  0  0  0  0  0  0  0  0
   25.8510   20.2810   13.1690 O   0  0  0  0  0  0  0  0  0  0  0  0
   24.9840   16.0080   11.2030 C   0  0  0  0  0  0  0  0  0  0  0  0
   26.6520   16.1190   11.5930 S   0  0  0  0  0  0  0  0  0  0  0  0
   27.7780   11.4350    9.9860 C   0  0  0  0  0  0  0  0  0  0  0  0
   26.8710   10.7140    9.3640 N   0  0  0  0  0  0  0  0  0  0  0  0
   24.8497    9.5640    8.8806 H   0  0  0  0  0  0  0  0  0  0  0  0
   23.8507    9.4948    7.3893 H   0  0  0  0  0  0  0  0  0  0  0  0
   25.5127    8.8135    7.3893 H   0  0  0  0  0  0  0  0  0  0  0  0
   25.8785   10.8585    6.3529 H   0  0  0  0  0  0  0  0  0  0  0  0
   24.5906   11.6828    7.3337 H   0  0  0  0  0  0  0  0  0  0  0  0
   27.0426   13.4915    7.5296 H   0  0  0  0  0  0  0  0  0  0  0  0
   26.1474   14.5832    8.3662 H   0  0  0  0  0  0  0  0  0  0  0  0
   21.5753   15.4601    9.6777 H   0  0  0  0  0  0  0  0  0  0  0  0
   25.8044   17.6319   12.8941 H   0  0  0  0  0  0  0  0  0  0  0  0
   24.1295   18.7100   15.1300 H   0  0  0  0  0  0  0  0  0  0  0  0
   25.4959   16.9312   16.1047 H   0  0  0  0  0  0  0  0  0  0  0  0
   26.9804   17.6533   15.3956 H   0  0  0  0  0  0  0  0  0  0  0  0
   25.1069   18.9417   17.4387 H   0  0  0  0  0  0  0  0  0  0  0  0
   26.7872   18.3299   17.7216 H   0  0  0  0  0  0  0  0  0  0  0  0
   26.4382   21.6222   15.1974 H   0  0  0  0  0  0  0  0  0  0  0  0
   28.3306   11.1116   10.8805 H   0  0  0  0  0  0  0  0  0  0  0  0
  1  2  1  0
  2  3  1  0
  3  4  2  0
  4  5  1  0
  5  6  1  0
  6  7  2  0
  6  8  2  0
  6  9  1  0
  9 10  1  0
 10 11  2  0
 11 12  1  0
 12 13  2  0
 13 14  1  0
 14 15  2  0
 15 16  1  0
 16 17  1  0
 17 18  2  0
 17 19  1  0
 19 20  1  0
 20 21  1  0
 21 22  1  0
 22 23  1  0
 23 24  2  0
 23 25  1  0
 25 26  1  0
 26 27  2  0
 16 28  2  0
 28 29  1  0
  5 30  1  0
 30 31  2  0
 31  3  1  0
 29 10  1  0
 28 12  1  0
 26 20  1  0
  1 32  1  0
  1 33  1  0
  1 34  1  0
  2 35  1  0
  2 36  1  0
  4 37  1  0
 11 38  1  0
 14 39  1  0
 19 40  1  0
 20 41  1  1
 21 42  1  0
 21 43  1  0
 22 44  1  0
 22 45  1  0
 25 46  1  0
 30 47  1  0
M  END
>  <meeko>  (808) 
{"is_sidechain": [true], "free_energy": -11.41, "intermolecular_energy": 0.0, "internal_energy": -11.41, "cluster_size": 9, "cluster_id": 1, "rank_in_cluster": 1}

>  <_RMSD_MCS_to_ref>  (808) 
0.692515142233166

$$$$
ligand
     RDKit          3D

 64 68  0  0  0  0  0  0  0  0999 V2000
   24.8540    9.4020    7.6050 C   0  0  0  0  0  0  0  0  0  0  0  0
   25.5230   10.7550    7.4270 C   0  0  0  0  0  0  0  0  0  0  0  0
   25.1970   11.3760    6.1140 C   0  0  0  0  0  0  0  0  0  0  0  0
   24.1980   12.2770    5.8050 C   0  0  0  0  0  0  0  0  0  0  0  0
   24.3420   12.4900    4.4650 N   0  0  0  0  0  0  0  0  0  0  0  0
   23.5340   13.6450    3.5470 S   0  0  0  0  0  6  0  0  0  0  0  0
   22.2170   13.7820    4.1360 O   0  0  0  0  0  0  0  0  0  0  0  0
   23.7340   13.2360    2.1700 O   0  0  0  0  0  0  0  0  0  0  0  0
   24.4360   15.1420    3.8360 C   0  0  0  0  0  0  0  0  0  0  0  0
   24.1030   16.2950    3.1230 C   0  0  0  0  0  0  0  0  0  0  0  0
   24.8170   17.4730    3.3450 C   0  0  0  0  0  0  0  0  0  0  0  0
   25.8580   17.5120    4.2860 C   0  0  0  0  0  0  0  0  0  0  0  0
   26.1940   16.3410    4.9970 C   0  0  0  0  0  0  0  0  0  0  0  0
   25.4690   15.1600    4.7770 C   0  0  0  0  0  0  0  0  0  0  0  0
   27.3150   16.3660    6.0260 C   0  0  2  0  0  0  0  0  0  0  0  0
   26.7740   16.1640    7.4470 C   0  0  0  0  0  0  0  0  0  0  0  0
   26.2380   15.1010    7.7540 O   0  0  0  0  0  0  0  0  0  0  0  0
   26.9200   17.2750    8.2560 N   0  0  0  0  0  0  0  0  0  0  0  0
   26.5160   17.4400    9.5920 C   0  0  0  0  0  0  0  0  0  0  0  0
   27.1740   18.4210   10.3420 C   0  0  0  0  0  0  0  0  0  0  0  0
   26.8320   18.6530   11.6780 C   0  0  0  0  0  0  0  0  0  0  0  0
   25.8230   17.9010   12.2960 C   0  0  0  0  0  0  0  0  0  0  0  0
   25.4450   18.1770   13.7410 C   0  0  1  0  0  0  0  0  0  0  0  0
   26.2990   17.3310   14.6920 C   0  0  0  0  0  0  0  0  0  0  0  0
   25.8820   17.5910   16.1290 C   0  0  0  0  0  0  0  0  0  0  0  0
   25.9870   19.0560   16.4680 C   0  0  0  0  0  0  0  0  0  0  0  0
   26.1140   19.4560   17.6220 O   0  0  0  0  0  0  0  0  0  0  0  0
   25.8610   19.9350   15.4230 N   0  0  0  0  0  0  0  0  0  0  0  0
   25.5330   19.6570   14.1160 C   0  0  0  0  0  0  0  0  0  0  0  0
   25.2630   20.5770   13.3470 O   0  0  0  0  0  0  0  0  0  0  0  0
   25.1690   16.9180   11.5410 C   0  0  0  0  0  0  0  0  0  0  0  0
   25.5120   16.6910   10.2030 C   0  0  0  0  0  0  0  0  0  0  0  0
   28.1750   17.6420    5.9320 C   0  0  0  0  0  0  0  0  0  0  0  0
   27.3440   18.8480    5.7680 N   0  0  0  0  0  0  0  0  0  0  0  0
   26.6400   18.7910    4.4780 C   0  0  0  0  0  0  0  0  0  0  0  0
   25.4060   11.7780    4.0120 C   0  0  0  0  0  0  0  0  0  0  0  0
   25.9460   11.0830    4.9920 N   0  0  0  0  0  0  0  0  0  0  0  0
   24.7464    9.1845    8.6779 H   0  0  0  0  0  0  0  0  0  0  0  0
   23.8606    9.4192    7.1330 H   0  0  0  0  0  0  0  0  0  0  0  0
   25.4708    8.6230    7.1330 H   0  0  0  0  0  0  0  0  0  0  0  0
   25.1840   11.4260    8.2300 H   0  0  0  0  0  0  0  0  0  0  0  0
   26.6114   10.6009    7.4663 H   0  0  0  0  0  0  0  0  0  0  0  0
   23.4555   12.7217    6.4839 H   0  0  0  0  0  0  0  0  0  0  0  0
   23.2826   16.2750    2.3905 H   0  0  0  0  0  0  0  0  0  0  0  0
   24.5617   18.3799    2.7772 H   0  0  0  0  0  0  0  0  0  0  0  0
   25.7133   14.2498    5.3443 H   0  0  0  0  0  0  0  0  0  0  0  0
   27.9769   15.5196    5.7902 H   0  0  0  0  0  0  0  0  0  0  0  0
   27.3847   18.0865    7.8243 H   0  0  0  0  0  0  0  0  0  0  0  0
   27.9710   19.0178    9.8744 H   0  0  0  0  0  0  0  0  0  0  0  0
   27.3590   19.4319   12.2486 H   0  0  0  0  0  0  0  0  0  0  0  0
   24.3882   17.8905   13.8459 H   0  0  0  0  0  0  0  0  0  0  0  0
   26.1585   16.2653   14.4584 H   0  0  0  0  0  0  0  0  0  0  0  0
   27.3577   17.6021   14.5669 H   0  0  0  0  0  0  0  0  0  0  0  0
   24.8405   17.2644   16.2655 H   0  0  0  0  0  0  0  0  0  0  0  0
   26.5538   17.0293   16.7948 H   0  0  0  0  0  0  0  0  0  0  0  0
   26.0333   20.9262   15.6439 H   0  0  0  0  0  0  0  0  0  0  0  0
   24.3747   16.3161   12.0066 H   0  0  0  0  0  0  0  0  0  0  0  0
   24.9846   15.9149    9.6290 H   0  0  0  0  0  0  0  0  0  0  0  0
   28.7686   17.7405    6.8528 H   0  0  0  0  0  0  0  0  0  0  0  0
   28.8270   17.5522    5.0506 H   0  0  0  0  0  0  0  0  0  0  0  0
   26.6553   18.8962    6.5324 H   0  0  0  0  0  0  0  0  0  0  0  0
   25.9425   19.6397    4.4219 H   0  0  0  0  0  0  0  0  0  0  0  0
   27.4023   18.8317    3.6860 H   0  0  0  0  0  0  0  0  0  0  0  0
   25.7663   11.7812    2.9727 H   0  0  0  0  0  0  0  0  0  0  0  0
  1  2  1  0
  2  3  1  0
  3  4  2  0
  4  5  1  0
  5  6  1  0
  6  7  2  0
  6  8  2  0
  6  9  1  0
  9 10  2  0
 10 11  1  0
 11 12  2  0
 12 13  1  0
 13 14  2  0
 13 15  1  0
 15 16  1  0
 16 17  2  0
 16 18  1  0
 18 19  1  0
 19 20  2  0
 20 21  1  0
 21 22  2  0
 22 23  1  0
 23 24  1  0
 24 25  1  0
 25 26  1  0
 26 27  2  0
 26 28  1  0
 28 29  1  0
 29 30  2  0
 22 31  1  0
 31 32  2  0
 15 33  1  0
 33 34  1  0
 34 35  1  0
  5 36  1  0
 36 37  2  0
 37  3  1  0
 14  9  1  0
 32 19  1  0
 35 12  1  0
 29 23  1  0
  1 38  1  0
  1 39  1  0
  1 40  1  0
  2 41  1  0
  2 42  1  0
  4 43  1  0
 10 44  1  0
 11 45  1  0
 14 46  1  0
 15 47  1  6
 18 48  1  0
 20 49  1  0
 21 50  1  0
 23 51  1  6
 24 52  1  0
 24 53  1  0
 25 54  1  0
 25 55  1  0
 28 56  1  0
 31 57  1  0
 32 58  1  0
 33 59  1  0
 33 60  1  0
 34 61  1  0
 35 62  1  0
 35 63  1  0
 36 64  1  0
M  END
>  <meeko>  (809) 
{"is_sidechain": [true], "free_energy": -11.4, "intermolecular_energy": 0.0, "internal_energy": -11.4, "cluster_size": 17, "cluster_id": 1, "rank_in_cluster": 1}

>  <_RMSD_MCS_to_ref>  (809) 
1.1375020879101712

$$$$
ligand
     RDKit          3D

 55 59  0  0  0  0  0  0  0  0999 V2000
   24.8710    9.6160    7.7820 C   0  0  0  0  0  0  0  0  0  0  0  0
   25.4240   10.9650    7.3490 C   0  0  0  0  0  0  0  0  0  0  0  0
   24.9530   11.3540    5.9920 C   0  0  0  0  0  0  0  0  0  0  0  0
   24.3160   12.5130    5.5930 C   0  0  0  0  0  0  0  0  0  0  0  0
   24.0630   12.3100    4.2660 N   0  0  0  0  0  0  0  0  0  0  0  0
   23.3830   13.4280    3.2060 S   0  0  0  0  0  6  0  0  0  0  0  0
   23.5520   12.8090    1.9030 O   0  0  0  0  0  0  0  0  0  0  0  0
   22.0550   13.7070    3.7230 O   0  0  0  0  0  0  0  0  0  0  0  0
   24.2600   14.7980    3.2140 O   0  0  0  0  0  0  0  0  0  0  0  0
   25.2000   14.9660    4.1910 C   0  0  0  0  0  0  0  0  0  0  0  0
   26.5320   14.7590    3.8740 C   0  0  0  0  0  0  0  0  0  0  0  0
   27.5110   14.8320    4.8040 N   0  0  0  0  0  0  0  0  0  0  0  0
   27.0920   15.1020    6.0660 C   0  0  0  0  0  0  0  0  0  0  0  0
   25.7520   15.2850    6.4050 C   0  0  0  0  0  0  0  0  0  0  0  0
   25.2880   15.5240    7.7850 C   0  0  0  0  0  0  0  0  0  0  0  0
   24.1570   14.8300    8.2880 C   0  0  0  0  0  0  0  0  0  0  0  0
   23.6920   15.0170    9.5950 C   0  0  0  0  0  0  0  0  0  0  0  0
   24.3840   15.9040   10.3900 C   0  0  0  0  0  0  0  0  0  0  0  0
   25.4990   16.6010    9.9390 C   0  0  0  0  0  0  0  0  0  0  0  0
   25.9600   16.4230    8.6420 C   0  0  0  0  0  0  0  0  0  0  0  0
   26.0160   17.4860   11.0220 C   0  0  0  0  0  0  0  0  0  0  0  0
   25.1630   17.1450   12.1520 N   0  0  0  0  0  0  0  0  0  0  0  0
   25.1700   17.9430   13.3740 C   0  0  2  0  0  0  0  0  0  0  0  0
   25.8960   19.2800   13.2360 C   0  0  0  0  0  0  0  0  0  0  0  0
   25.7880   20.0500   14.5420 C   0  0  0  0  0  0  0  0  0  0  0  0
   26.3320   19.2460   15.7000 C   0  0  0  0  0  0  0  0  0  0  0  0
   26.7210   19.7740   16.7370 O   0  0  0  0  0  0  0  0  0  0  0  0
   26.2920   17.8800   15.5760 N   0  0  0  0  0  0  0  0  0  0  0  0
   25.7340   17.1410   14.5570 C   0  0  0  0  0  0  0  0  0  0  0  0
   25.6100   15.9210   14.6700 O   0  0  0  0  0  0  0  0  0  0  0  0
   24.1320   16.2930   11.7820 C   0  0  0  0  0  0  0  0  0  0  0  0
   23.1770   15.9330   12.4420 O   0  0  0  0  0  0  0  0  0  0  0  0
   24.7850   15.2210    5.4490 N   0  0  0  0  0  0  0  0  0  0  0  0
   24.6230   11.1370    3.8780 C   0  0  0  0  0  0  0  0  0  0  0  0
   25.1420   10.5110    4.9140 N   0  0  0  0  0  0  0  0  0  0  0  0
   24.8497    9.5640    8.8806 H   0  0  0  0  0  0  0  0  0  0  0  0
   23.8507    9.4948    7.3893 H   0  0  0  0  0  0  0  0  0  0  0  0
   25.5127    8.8135    7.3893 H   0  0  0  0  0  0  0  0  0  0  0  0
   25.0988   11.7295    8.0699 H   0  0  0  0  0  0  0  0  0  0  0  0
   26.5208   10.8869    7.3173 H   0  0  0  0  0  0  0  0  0  0  0  0
   24.0696   13.3949    6.2025 H   0  0  0  0  0  0  0  0  0  0  0  0
   26.8022   14.5279    2.8330 H   0  0  0  0  0  0  0  0  0  0  0  0
   27.8475   15.1805    6.8617 H   0  0  0  0  0  0  0  0  0  0  0  0
   23.6294   14.1233    7.6305 H   0  0  0  0  0  0  0  0  0  0  0  0
   22.8103   14.4779    9.9717 H   0  0  0  0  0  0  0  0  0  0  0  0
   26.8406   16.9771    8.2849 H   0  0  0  0  0  0  0  0  0  0  0  0
   27.0714   17.2676   11.2421 H   0  0  0  0  0  0  0  0  0  0  0  0
   25.9879   18.5544   10.7619 H   0  0  0  0  0  0  0  0  0  0  0  0
   24.1158   18.1866   13.5725 H   0  0  0  0  0  0  0  0  0  0  0  0
   26.9558   19.0998   13.0027 H   0  0  0  0  0  0  0  0  0  0  0  0
   25.4375   19.8652   12.4253 H   0  0  0  0  0  0  0  0  0  0  0  0
   26.3604   20.9853   14.4549 H   0  0  0  0  0  0  0  0  0  0  0  0
   24.7255   20.2604   14.7342 H   0  0  0  0  0  0  0  0  0  0  0  0
   26.7323   17.3429   16.3366 H   0  0  0  0  0  0  0  0  0  0  0  0
   24.6411   10.7617    2.8442 H   0  0  0  0  0  0  0  0  0  0  0  0
  1  2  1  0
  2  3  1  0
  3  4  2  0
  4  5  1  0
  5  6  1  0
  6  7  2  0
  6  8  2  0
  6  9  1  0
  9 10  1  0
 10 11  2  0
 11 12  1  0
 12 13  2  0
 13 14  1  0
 14 15  1  0
 15 16  2  0
 16 17  1  0
 17 18  2  0
 18 19  1  0
 19 20  2  0
 19 21  1  0
 21 22  1  0
 22 23  1  0
 23 24  1  0
 24 25  1  0
 25 26  1  0
 26 27  2  0
 26 28  1  0
 28 29  1  0
 29 30  2  0
 22 31  1  0
 31 32  2  0
 14 33  2  0
  5 34  1  0
 34 35  2  0
 35  3  1  0
 33 10  1  0
 20 15  1  0
 29 23  1  0
 31 18  1  0
  1 36  1  0
  1 37  1  0
  1 38  1  0
  2 39  1  0
  2 40  1  0
  4 41  1  0
 11 42  1  0
 13 43  1  0
 16 44  1  0
 17 45  1  0
 20 46  1  0
 21 47  1  0
 21 48  1  0
 23 49  1  1
 24 50  1  0
 24 51  1  0
 25 52  1  0
 25 53  1  0
 28 54  1  0
 34 55  1  0
M  END
>  <meeko>  (810) 
{"is_sidechain": [true], "free_energy": -11.4, "intermolecular_energy": 0.0, "internal_energy": -11.4, "cluster_size": 13, "cluster_id": 1, "rank_in_cluster": 1}

>  <_RMSD_MCS_to_ref>  (810) 
1.931345999146982

$$$$
ligand
     RDKit          3D

 54 58  0  0  0  0  0  0  0  0999 V2000
   24.8710    9.6160    7.7820 C   0  0  0  0  0  0  0  0  0  0  0  0
   25.4240   10.9650    7.3490 C   0  0  0  0  0  0  0  0  0  0  0  0
   26.8440   11.1450    7.7550 C   0  0  0  0  0  0  0  0  0  0  0  0
   27.4080   12.1500    8.5160 C   0  0  0  0  0  0  0  0  0  0  0  0
   28.7290   11.8080    8.5980 N   0  0  0  0  0  0  0  0  0  0  0  0
   29.9700   12.7810    9.2040 S   0  0  0  0  0  6  0  0  0  0  0  0
   29.8340   12.7120   10.6480 O   0  0  0  0  0  0  0  0  0  0  0  0
   31.1630   12.2930    8.5390 O   0  0  0  0  0  0  0  0  0  0  0  0
   29.6870   14.3090    8.6920 O   0  0  0  0  0  0  0  0  0  0  0  0
   28.9790   14.5460    7.5670 C   0  0  0  0  0  0  0  0  0  0  0  0
   29.4190   14.2790    6.2420 C   0  0  0  0  0  0  0  0  0  0  0  0
   28.4670   14.6350    5.3120 C   0  0  0  0  0  0  0  0  0  0  0  0
   27.0590   15.2780    6.0430 S   0  0  0  0  0  0  0  0  0  0  0  0
   27.7060   15.0760    7.6180 C   0  0  0  0  0  0  0  0  0  0  0  0
   26.9250   15.4780    8.7870 C   0  0  0  0  0  0  0  0  0  0  0  0
   25.6920   14.8420    9.0620 C   0  0  0  0  0  0  0  0  0  0  0  0
   24.9610   15.1550   10.2120 C   0  0  0  0  0  0  0  0  0  0  0  0
   25.5000   16.0940   11.0700 C   0  0  0  0  0  0  0  0  0  0  0  0
   26.7120   16.7320   10.8220 C   0  0  0  0  0  0  0  0  0  0  0  0
   27.4310   16.4450    9.6740 C   0  0  0  0  0  0  0  0  0  0  0  0
   27.0370   17.6720   11.9330 C   0  0  0  0  0  0  0  0  0  0  0  0
   25.9350   17.4510   12.8630 N   0  0  0  0  0  0  0  0  0  0  0  0
   25.6720   18.3050   14.0150 C   0  0  1  0  0  0  0  0  0  0  0  0
   26.2480   17.7340   15.3070 C   0  0  0  0  0  0  0  0  0  0  0  0
   25.8580   18.6310   16.4730 C   0  0  0  0  0  0  0  0  0  0  0  0
   26.3010   20.0550   16.2370 C   0  0  0  0  0  0  0  0  0  0  0  0
   26.6910   20.7820   17.1470 O   0  0  0  0  0  0  0  0  0  0  0  0
   26.2310   20.5150   14.9470 N   0  0  0  0  0  0  0  0  0  0  0  0
   26.2090   19.7320   13.8130 C   0  0  0  0  0  0  0  0  0  0  0  0
   26.6080   20.1830   12.7430 O   0  0  0  0  0  0  0  0  0  0  0  0
   24.9780   16.5900   12.3480 C   0  0  0  0  0  0  0  0  0  0  0  0
   23.9090   16.2760   12.8350 O   0  0  0  0  0  0  0  0  0  0  0  0
   28.9440   10.6900    7.8590 C   0  0  0  0  0  0  0  0  0  0  0  0
   27.8130   10.2520    7.3420 N   0  0  0  0  0  0  0  0  0  0  0  0
   24.8497    9.5640    8.8806 H   0  0  0  0  0  0  0  0  0  0  0  0
   23.8507    9.4948    7.3893 H   0  0  0  0  0  0  0  0  0  0  0  0
   25.5127    8.8135    7.3893 H   0  0  0  0  0  0  0  0  0  0  0  0
   25.3560   11.0410    6.2537 H   0  0  0  0  0  0  0  0  0  0  0  0
   24.8293   11.7484    7.8415 H   0  0  0  0  0  0  0  0  0  0  0  0
   26.9083   13.0258    8.9558 H   0  0  0  0  0  0  0  0  0  0  0  0
   30.3970   13.8428    5.9907 H   0  0  0  0  0  0  0  0  0  0  0  0
   28.5966   14.5195    4.2258 H   0  0  0  0  0  0  0  0  0  0  0  0
   25.3023   14.0897    8.3605 H   0  0  0  0  0  0  0  0  0  0  0  0
   23.9955   14.6729   10.4250 H   0  0  0  0  0  0  0  0  0  0  0  0
   28.3779   16.9624    9.4603 H   0  0  0  0  0  0  0  0  0  0  0  0
   28.0037   17.4229   12.3951 H   0  0  0  0  0  0  0  0  0  0  0  0
   27.1352   18.7185   11.6087 H   0  0  0  0  0  0  0  0  0  0  0  0
   24.5764   18.3440   14.1050 H   0  0  0  0  0  0  0  0  0  0  0  0
   25.8479   16.7227   15.4719 H   0  0  0  0  0  0  0  0  0  0  0  0
   27.3443   17.6853   15.2310 H   0  0  0  0  0  0  0  0  0  0  0  0
   24.7646   18.6102   16.5919 H   0  0  0  0  0  0  0  0  0  0  0  0
   26.3535   18.2576   17.3813 H   0  0  0  0  0  0  0  0  0  0  0  0
   26.1914   21.5356   14.8138 H   0  0  0  0  0  0  0  0  0  0  0  0
   29.9254   10.2154    7.7119 H   0  0  0  0  0  0  0  0  0  0  0  0
  1  2  1  0
  2  3  1  0
  3  4  2  0
  4  5  1  0
  5  6  1  0
  6  7  2  0
  6  8  2  0
  6  9  1  0
  9 10  1  0
 10 11  1  0
 11 12  2  0
 12 13  1  0
 13 14  1  0
 14 15  1  0
 15 16  2  0
 16 17  1  0
 17 18  2  0
 18 19  1  0
 19 20  2  0
 19 21  1  0
 21 22  1  0
 22 23  1  0
 23 24  1  0
 24 25  1  0
 25 26  1  0
 26 27  2  0
 26 28  1  0
 28 29  1  0
 29 30  2  0
 22 31  1  0
 31 32  2  0
  5 33  1  0
 33 34  2  0
 34  3  1  0
 14 10  2  0
 20 15  1  0
 29 23  1  0
 31 18  1  0
  1 35  1  0
  1 36  1  0
  1 37  1  0
  2 38  1  0
  2 39  1  0
  4 40  1  0
 11 41  1  0
 12 42  1  0
 16 43  1  0
 17 44  1  0
 20 45  1  0
 21 46  1  0
 21 47  1  0
 23 48  1  1
 24 49  1  0
 24 50  1  0
 25 51  1  0
 25 52  1  0
 28 53  1  0
 33 54  1  0
M  END
>  <meeko>  (811) 
{"is_sidechain": [true], "free_energy": -11.4, "intermolecular_energy": 0.0, "internal_energy": -11.4, "cluster_size": 12, "cluster_id": 1, "rank_in_cluster": 1}

>  <_RMSD_MCS_to_ref>  (811) 
1.394508458957945

$$$$
ligand
     RDKit          3D

 51 54  0  0  0  0  0  0  0  0999 V2000
   24.8710    9.6170    7.7820 C   0  0  0  0  0  0  0  0  0  0  0  0
   25.4240   10.9640    7.3490 C   0  0  0  0  0  0  0  0  0  0  0  0
   26.5070   11.4470    8.2480 C   0  0  0  0  0  0  0  0  0  0  0  0
   27.5410   12.3170    7.9660 C   0  0  0  0  0  0  0  0  0  0  0  0
   28.2490   12.3890    9.1320 N   0  0  0  0  0  0  0  0  0  0  0  0
   29.4590   13.5140    9.4920 S   0  0  0  0  0  6  0  0  0  0  0  0
   29.7790   13.2590   10.8830 O   0  0  0  0  0  0  0  0  0  0  0  0
   30.4530   13.3510    8.4470 O   0  0  0  0  0  0  0  0  0  0  0  0
   28.8020   15.0110    9.3830 O   0  0  0  0  0  0  0  0  0  0  0  0
   27.4470   15.1280    9.4710 C   0  0  0  0  0  0  0  0  0  0  0  0
   26.6090   14.8420    8.4120 C   0  0  0  0  0  0  0  0  0  0  0  0
   25.2630   14.9190    8.4960 N   0  0  0  0  0  0  0  0  0  0  0  0
   24.7110   15.3060    9.6610 C   0  0  0  0  0  0  0  0  0  0  0  0
   23.3260   15.3630    9.7470 C   0  0  0  0  0  0  0  0  0  0  0  0
   22.6680   15.7300   10.9240 C   0  0  0  0  0  0  0  0  0  0  0  0
   23.4100   16.0470   12.0540 C   0  0  0  0  0  0  0  0  0  0  0  0
   24.8070   16.0010   11.9930 C   0  0  0  0  0  0  0  0  0  0  0  0
   25.5720   16.3060   13.2250 C   0  0  0  0  0  0  0  0  0  0  0  0
   25.9400   15.4140   13.9760 O   0  0  0  0  0  0  0  0  0  0  0  0
   25.7840   17.6420   13.4550 N   0  0  0  0  0  0  0  0  0  0  0  0
   26.4640   18.1250   14.6470 C   0  0  2  0  0  0  0  0  0  0  0  0
   25.5490   18.1370   15.8680 C   0  0  0  0  0  0  0  0  0  0  0  0
   26.3140   18.6740   17.0680 C   0  0  0  0  0  0  0  0  0  0  0  0
   26.9000   20.0370   16.7820 C   0  0  0  0  0  0  0  0  0  0  0  0
   27.0200   20.8990   17.6480 O   0  0  0  0  0  0  0  0  0  0  0  0
   27.3320   20.2650   15.5000 N   0  0  0  0  0  0  0  0  0  0  0  0
   26.9550   19.5520   14.3880 C   0  0  0  0  0  0  0  0  0  0  0  0
   27.0160   20.0470   13.2640 O   0  0  0  0  0  0  0  0  0  0  0  0
   25.4800   15.6400   10.7970 C   0  0  0  0  0  0  0  0  0  0  0  0
   26.8820   15.5580   10.6620 C   0  0  0  0  0  0  0  0  0  0  0  0
   27.6230   11.6400   10.0780 C   0  0  0  0  0  0  0  0  0  0  0  0
   26.5630   11.0450    9.5690 N   0  0  0  0  0  0  0  0  0  0  0  0
   24.8498    9.5653    8.8806 H   0  0  0  0  0  0  0  0  0  0  0  0
   23.8505    9.4962    7.3895 H   0  0  0  0  0  0  0  0  0  0  0  0
   25.5122    8.8140    7.3895 H   0  0  0  0  0  0  0  0  0  0  0  0
   25.8266   10.8697    6.3297 H   0  0  0  0  0  0  0  0  0  0  0  0
   24.6020   11.6938    7.3912 H   0  0  0  0  0  0  0  0  0  0  0  0
   27.7478   12.8347    7.0177 H   0  0  0  0  0  0  0  0  0  0  0  0
   27.0582   14.5372    7.4553 H   0  0  0  0  0  0  0  0  0  0  0  0
   22.7272   15.1109    8.8594 H   0  0  0  0  0  0  0  0  0  0  0  0
   21.5691   15.7675   10.9550 H   0  0  0  0  0  0  0  0  0  0  0  0
   22.9042   16.3316   12.9884 H   0  0  0  0  0  0  0  0  0  0  0  0
   25.4506   18.3257   12.7606 H   0  0  0  0  0  0  0  0  0  0  0  0
   27.3011   17.4433   14.8582 H   0  0  0  0  0  0  0  0  0  0  0  0
   24.6798   18.7811   15.6688 H   0  0  0  0  0  0  0  0  0  0  0  0
   25.2055   17.1136   16.0795 H   0  0  0  0  0  0  0  0  0  0  0  0
   25.6281   18.7517   17.9244 H   0  0  0  0  0  0  0  0  0  0  0  0
   27.1392   17.9817   17.2911 H   0  0  0  0  0  0  0  0  0  0  0  0
   27.9973   21.0386   15.3589 H   0  0  0  0  0  0  0  0  0  0  0  0
   27.5302   15.8366   11.5059 H   0  0  0  0  0  0  0  0  0  0  0  0
   27.9548   11.5440   11.1224 H   0  0  0  0  0  0  0  0  0  0  0  0
  1  2  1  0
  2  3  1  0
  3  4  2  0
  4  5  1  0
  5  6  1  0
  6  7  2  0
  6  8  2  0
  6  9  1  0
  9 10  1  0
 10 11  2  0
 11 12  1  0
 12 13  2  0
 13 14  1  0
 14 15  2  0
 15 16  1  0
 16 17  2  0
 17 18  1  0
 18 19  2  0
 18 20  1  0
 20 21  1  0
 21 22  1  0
 22 23  1  0
 23 24  1  0
 24 25  2  0
 24 26  1  0
 26 27  1  0
 27 28  2  0
 17 29  1  0
 29 30  2  0
  5 31  1  0
 31 32  2  0
 32  3  1  0
 30 10  1  0
 29 13  1  0
 27 21  1  0
  1 33  1  0
  1 34  1  0
  1 35  1  0
  2 36  1  0
  2 37  1  0
  4 38  1  0
 11 39  1  0
 14 40  1  0
 15 41  1  0
 16 42  1  0
 20 43  1  0
 21 44  1  1
 22 45  1  0
 22 46  1  0
 23 47  1  0
 23 48  1  0
 26 49  1  0
 30 50  1  0
 31 51  1  0
M  END
>  <meeko>  (812) 
{"is_sidechain": [true], "free_energy": -11.4, "intermolecular_energy": 0.0, "internal_energy": -11.4, "cluster_size": 8, "cluster_id": 1, "rank_in_cluster": 1}

>  <_RMSD_MCS_to_ref>  (812) 
1.4297541746747928

$$$$
ligand
     RDKit          3D

 52 55  0  0  0  0  0  0  0  0999 V2000
   24.8710    9.6160    7.7820 C   0  0  0  0  0  0  0  0  0  0  0  0
   25.4240   10.9650    7.3490 C   0  0  0  0  0  0  0  0  0  0  0  0
   26.5030   11.4460    8.2540 C   0  0  0  0  0  0  0  0  0  0  0  0
   27.2870   12.5780    8.1440 C   0  0  0  0  0  0  0  0  0  0  0  0
   28.1200   12.5140    9.2250 N   0  0  0  0  0  0  0  0  0  0  0  0
   29.2350   13.6820    9.6820 S   0  0  0  0  0  6  0  0  0  0  0  0
   29.9640   14.0100    8.4680 O   0  0  0  0  0  0  0  0  0  0  0  0
   29.9080   13.1650   10.8610 O   0  0  0  0  0  0  0  0  0  0  0  0
   28.2520   15.0800   10.1480 C   0  0  0  0  0  0  0  0  0  0  0  0
   26.9310   14.9030   10.5270 C   0  0  0  0  0  0  0  0  0  0  0  0
   26.2080   16.0280   10.9390 C   0  0  0  0  0  0  0  0  0  0  0  0
   24.8080   15.9300   11.3740 C   0  0  0  0  0  0  0  0  0  0  0  0
   23.9520   15.5820   10.3670 N   0  0  0  0  0  0  0  0  0  0  0  0
   22.6500   15.4200   10.6990 C   0  0  0  0  0  0  0  0  0  0  0  0
   22.1900   15.5960   11.9900 C   0  0  0  0  0  0  0  0  0  0  0  0
   23.0060   15.9540   13.0040 N   0  0  0  0  0  0  0  0  0  0  0  0
   24.3260   16.1290   12.6730 C   0  0  0  0  0  0  0  0  0  0  0  0
   25.1890   16.5880   13.8140 C   0  0  0  0  0  0  0  0  0  0  0  0
   25.7490   15.8210   14.5870 O   0  0  0  0  0  0  0  0  0  0  0  0
   25.3180   17.9590   13.9090 N   0  0  0  0  0  0  0  0  0  0  0  0
   26.2380   18.5950   14.8340 C   0  0  2  0  0  0  0  0  0  0  0  0
   25.9860   18.1630   16.2760 C   0  0  0  0  0  0  0  0  0  0  0  0
   26.9620   18.8760   17.1990 C   0  0  0  0  0  0  0  0  0  0  0  0
   26.8760   20.3750   17.0370 C   0  0  0  0  0  0  0  0  0  0  0  0
   27.0710   21.1500   17.9690 O   0  0  0  0  0  0  0  0  0  0  0  0
   26.6020   20.8440   15.7780 N   0  0  0  0  0  0  0  0  0  0  0  0
   26.0840   20.1170   14.7330 C   0  0  0  0  0  0  0  0  0  0  0  0
   25.5550   20.6760   13.7740 O   0  0  0  0  0  0  0  0  0  0  0  0
   26.8540   17.2740   10.8940 C   0  0  0  0  0  0  0  0  0  0  0  0
   28.1780   17.3430   10.4840 C   0  0  0  0  0  0  0  0  0  0  0  0
   28.9020   16.2690   10.1150 N   0  0  0  0  0  0  0  0  0  0  0  0
   27.8020   11.4220    9.9680 C   0  0  0  0  0  0  0  0  0  0  0  0
   26.8350   10.7360    9.3910 N   0  0  0  0  0  0  0  0  0  0  0  0
   24.8497    9.5640    8.8806 H   0  0  0  0  0  0  0  0  0  0  0  0
   23.8507    9.4948    7.3893 H   0  0  0  0  0  0  0  0  0  0  0  0
   25.5127    8.8135    7.3893 H   0  0  0  0  0  0  0  0  0  0  0  0
   25.8307   10.8712    6.3312 H   0  0  0  0  0  0  0  0  0  0  0  0
   24.6018   11.6949    7.3854 H   0  0  0  0  0  0  0  0  0  0  0  0
   27.2493   13.3533    7.3646 H   0  0  0  0  0  0  0  0  0  0  0  0
   26.4643   13.9072   10.5047 H   0  0  0  0  0  0  0  0  0  0  0  0
   21.9330   15.1384    9.9137 H   0  0  0  0  0  0  0  0  0  0  0  0
   21.1215   15.4389   12.1988 H   0  0  0  0  0  0  0  0  0  0  0  0
   24.7387   18.5540   13.2996 H   0  0  0  0  0  0  0  0  0  0  0  0
   27.2579   18.2871   14.5601 H   0  0  0  0  0  0  0  0  0  0  0  0
   24.9558   18.4225   16.5614 H   0  0  0  0  0  0  0  0  0  0  0  0
   26.1287   17.0757   16.3623 H   0  0  0  0  0  0  0  0  0  0  0  0
   26.7260   18.6142   18.2410 H   0  0  0  0  0  0  0  0  0  0  0  0
   27.9820   18.5568   16.9387 H   0  0  0  0  0  0  0  0  0  0  0  0
   26.8040   21.8378   15.5979 H   0  0  0  0  0  0  0  0  0  0  0  0
   26.3146   18.1885   11.1816 H   0  0  0  0  0  0  0  0  0  0  0  0
   28.6632   18.3299   10.4590 H   0  0  0  0  0  0  0  0  0  0  0  0
   28.2839   11.1483   10.9182 H   0  0  0  0  0  0  0  0  0  0  0  0
  1  2  1  0
  2  3  1  0
  3  4  2  0
  4  5  1  0
  5  6  1  0
  6  7  2  0
  6  8  2  0
  6  9  1  0
  9 10  2  0
 10 11  1  0
 11 12  1  0
 12 13  2  0
 13 14  1  0
 14 15  2  0
 15 16  1  0
 16 17  2  0
 17 18  1  0
 18 19  2  0
 18 20  1  0
 20 21  1  0
 21 22  1  0
 22 23  1  0
 23 24  1  0
 24 25  2  0
 24 26  1  0
 26 27  1  0
 27 28  2  0
 11 29  2  0
 29 30  1  0
 30 31  2  0
  5 32  1  0
 32 33  2  0
 33  3  1  0
 31  9  1  0
 17 12  1  0
 27 21  1  0
  1 34  1  0
  1 35  1  0
  1 36  1  0
  2 37  1  0
  2 38  1  0
  4 39  1  0
 10 40  1  0
 14 41  1  0
 15 42  1  0
 20 43  1  0
 21 44  1  6
 22 45  1  0
 22 46  1  0
 23 47  1  0
 23 48  1  0
 26 49  1  0
 29 50  1  0
 30 51  1  0
 32 52  1  0
M  END
>  <meeko>  (813) 
{"is_sidechain": [true], "free_energy": -11.4, "intermolecular_energy": 0.0, "internal_energy": -11.4, "cluster_size": 4, "cluster_id": 1, "rank_in_cluster": 1}

>  <_RMSD_MCS_to_ref>  (813) 
1.158726551962206

$$$$
ligand
     RDKit          3D

 62 66  0  0  0  0  0  0  0  0999 V2000
   24.8540    9.4020    7.6050 C   0  0  0  0  0  0  0  0  0  0  0  0
   25.5230   10.7550    7.4270 C   0  0  0  0  0  0  0  0  0  0  0  0
   24.6790   11.7060    6.6510 C   0  0  0  0  0  0  0  0  0  0  0  0
   24.8280   12.1280    5.3440 C   0  0  0  0  0  0  0  0  0  0  0  0
   23.8080   13.0170    5.1570 N   0  0  0  0  0  0  0  0  0  0  0  0
   23.4700   13.8410    3.7320 S   0  0  0  0  0  6  0  0  0  0  0  0
   22.0190   13.8470    3.6430 O   0  0  0  0  0  0  0  0  0  0  0  0
   24.2720   13.2080    2.7030 O   0  0  0  0  0  0  0  0  0  0  0  0
   23.9990   15.5100    4.0280 C   0  0  0  0  0  0  0  0  0  0  0  0
   23.3950   16.5230    3.2670 C   0  0  0  0  0  0  0  0  0  0  0  0
   23.8300   17.8410    3.3820 C   0  0  0  0  0  0  0  0  0  0  0  0
   24.8800   18.1510    4.2420 C   0  0  0  0  0  0  0  0  0  0  0  0
   25.4950   17.1490    5.0080 C   0  0  0  0  0  0  0  0  0  0  0  0
   25.0510   15.8190    4.9010 C   0  0  0  0  0  0  0  0  0  0  0  0
   25.5870   14.8230    5.6690 O   0  0  0  0  0  0  0  0  0  0  0  0
   26.9090   15.0760    6.1660 C   0  0  0  0  0  0  0  0  0  0  0  0
   27.0030   16.4210    6.8890 C   0  0  2  0  0  0  0  0  0  0  0  0
   26.0890   16.4520    8.0290 N   0  0  0  0  0  0  0  0  0  0  0  0
   26.4810   16.1210    9.3110 C   0  0  0  0  0  0  0  0  0  0  0  0
   27.5820   15.6600    9.5870 O   0  0  0  0  0  0  0  0  0  0  0  0
   25.4880   16.4270   10.3800 C   0  0  0  0  0  0  0  0  0  0  0  0
   24.2500   15.7880   10.3980 C   0  0  0  0  0  0  0  0  0  0  0  0
   23.3820   15.9990   11.4710 C   0  0  0  0  0  0  0  0  0  0  0  0
   23.7680   16.8110   12.5490 C   0  0  0  0  0  0  0  0  0  0  0  0
   25.0150   17.4490   12.5500 C   0  0  0  0  0  0  0  0  0  0  0  0
   25.5120   18.1930   13.6710 N   0  0  0  0  0  0  0  0  0  0  0  0
   26.2920   17.5280   14.7040 C   0  0  0  0  0  0  0  0  0  0  0  0
   26.1030   18.1950   16.0480 C   0  0  0  0  0  0  0  0  0  0  0  0
   26.3980   19.6590   15.9240 C   0  0  0  0  0  0  0  0  0  0  0  0
   26.8680   20.3140   16.8490 O   0  0  0  0  0  0  0  0  0  0  0  0
   26.0510   20.2240   14.7290 N   0  0  0  0  0  0  0  0  0  0  0  0
   25.5590   19.5960   13.6140 C   0  0  0  0  0  0  0  0  0  0  0  0
   25.2190   20.2780   12.6460 O   0  0  0  0  0  0  0  0  0  0  0  0
   25.8140   17.3110   11.4110 C   0  0  0  0  0  0  0  0  0  0  0  0
   26.6640   17.5260    5.8880 C   0  0  0  0  0  0  0  0  0  0  0  0
   23.0580   13.0750    6.2890 C   0  0  0  0  0  0  0  0  0  0  0  0
   23.5700   12.2970    7.2260 N   0  0  0  0  0  0  0  0  0  0  0  0
   24.7464    9.1845    8.6779 H   0  0  0  0  0  0  0  0  0  0  0  0
   23.8606    9.4192    7.1330 H   0  0  0  0  0  0  0  0  0  0  0  0
   25.4708    8.6230    7.1330 H   0  0  0  0  0  0  0  0  0  0  0  0
   25.7195   11.1857    8.4199 H   0  0  0  0  0  0  0  0  0  0  0  0
   26.4556   10.5977    6.8653 H   0  0  0  0  0  0  0  0  0  0  0  0
   25.5944   11.8182    4.6183 H   0  0  0  0  0  0  0  0  0  0  0  0
   22.5749   16.2749    2.5771 H   0  0  0  0  0  0  0  0  0  0  0  0
   23.3453   18.6349    2.7949 H   0  0  0  0  0  0  0  0  0  0  0  0
   25.2306   19.1906    4.3217 H   0  0  0  0  0  0  0  0  0  0  0  0
   27.1833   14.2754    6.8687 H   0  0  0  0  0  0  0  0  0  0  0  0
   27.5950   15.1041    5.3066 H   0  0  0  0  0  0  0  0  0  0  0  0
   28.0207   16.5725    7.2779 H   0  0  0  0  0  0  0  0  0  0  0  0
   25.1109   16.7327    7.8694 H   0  0  0  0  0  0  0  0  0  0  0  0
   23.9585   15.1219    9.5726 H   0  0  0  0  0  0  0  0  0  0  0  0
   22.3890   15.5258   11.4716 H   0  0  0  0  0  0  0  0  0  0  0  0
   23.0852   16.9475   13.4005 H   0  0  0  0  0  0  0  0  0  0  0  0
   25.9707   16.4785   14.7762 H   0  0  0  0  0  0  0  0  0  0  0  0
   27.3558   17.5906   14.4311 H   0  0  0  0  0  0  0  0  0  0  0  0
   25.0644   18.0572   16.3831 H   0  0  0  0  0  0  0  0  0  0  0  0
   26.7874   17.7435   16.7813 H   0  0  0  0  0  0  0  0  0  0  0  0
   26.1739   21.2441   14.6574 H   0  0  0  0  0  0  0  0  0  0  0  0
   26.7276   17.9174   11.3242 H   0  0  0  0  0  0  0  0  0  0  0  0
   26.4115   18.4423    6.4417 H   0  0  0  0  0  0  0  0  0  0  0  0
   27.5407   17.6821    5.2423 H   0  0  0  0  0  0  0  0  0  0  0  0
   22.1505   13.6851    6.4084 H   0  0  0  0  0  0  0  0  0  0  0  0
  1  2  1  0
  2  3  1  0
  3  4  2  0
  4  5  1  0
  5  6  1  0
  6  7  2  0
  6  8  2  0
  6  9  1  0
  9 10  2  0
 10 11  1  0
 11 12  2  0
 12 13  1  0
 13 14  2  0
 14 15  1  0
 15 16  1  0
 16 17  1  0
 17 18  1  0
 18 19  1  0
 19 20  2  0
 19 21  1  0
 21 22  2  0
 22 23  1  0
 23 24  2  0
 24 25  1  0
 25 26  1  0
 26 27  1  0
 27 28  1  0
 28 29  1  0
 29 30  2  0
 29 31  1  0
 31 32  1  0
 32 33  2  0
 25 34  2  0
 17 35  1  0
  5 36  1  0
 36 37  2  0
 37  3  1  0
 14  9  1  0
 34 21  1  0
 35 13  1  0
 32 26  1  0
  1 38  1  0
  1 39  1  0
  1 40  1  0
  2 41  1  0
  2 42  1  0
  4 43  1  0
 10 44  1  0
 11 45  1  0
 12 46  1  0
 16 47  1  0
 16 48  1  0
 17 49  1  1
 18 50  1  0
 22 51  1  0
 23 52  1  0
 24 53  1  0
 27 54  1  0
 27 55  1  0
 28 56  1  0
 28 57  1  0
 31 58  1  0
 34 59  1  0
 35 60  1  0
 35 61  1  0
 36 62  1  0
M  END
>  <meeko>  (814) 
{"is_sidechain": [true], "free_energy": -11.39, "intermolecular_energy": 0.0, "internal_energy": -11.39, "cluster_size": 19, "cluster_id": 1, "rank_in_cluster": 1}

>  <_RMSD_MCS_to_ref>  (814) 
0.9831063014750744

$$$$
ligand
     RDKit          3D

 55 59  0  0  0  0  0  0  0  0999 V2000
   24.8710    9.6170    7.7820 C   0  0  0  0  0  0  0  0  0  0  0  0
   25.4240   10.9640    7.3490 C   0  0  0  0  0  0  0  0  0  0  0  0
   26.8250   11.1700    7.8080 C   0  0  0  0  0  0  0  0  0  0  0  0
   27.3000   12.0240    8.7840 C   0  0  0  0  0  0  0  0  0  0  0  0
   28.6490   11.8190    8.7830 N   0  0  0  0  0  0  0  0  0  0  0  0
   29.7930   12.7730    9.5810 S   0  0  0  0  0  6  0  0  0  0  0  0
   29.2720   12.9040   10.9300 O   0  0  0  0  0  0  0  0  0  0  0  0
   31.0640   12.1170    9.3380 O   0  0  0  0  0  0  0  0  0  0  0  0
   29.7860   14.2590    8.8890 O   0  0  0  0  0  0  0  0  0  0  0  0
   29.1540   14.4220    7.6770 C   0  0  0  0  0  0  0  0  0  0  0  0
   29.8000   14.0220    6.5020 C   0  0  0  0  0  0  0  0  0  0  0  0
   29.1630   14.1480    5.2710 C   0  0  0  0  0  0  0  0  0  0  0  0
   27.8760   14.6830    5.1790 C   0  0  0  0  0  0  0  0  0  0  0  0
   27.2600   15.1100    6.3610 C   0  0  0  0  0  0  0  0  0  0  0  0
   26.0160   15.6620    6.5580 N   0  0  0  0  0  0  0  0  0  0  0  0
   25.8100   15.9460    7.8870 C   0  0  0  0  0  0  0  0  0  0  0  0
   24.7050   16.4910    8.5280 C   0  0  0  0  0  0  0  0  0  0  0  0
   24.7410   16.6680    9.8660 N   0  0  0  0  0  0  0  0  0  0  0  0
   25.8720   16.3170   10.5390 C   0  0  0  0  0  0  0  0  0  0  0  0
   25.8310   16.4990   12.0260 C   0  0  0  0  0  0  0  0  0  0  0  0
   25.9340   15.5510   12.7960 O   0  0  0  0  0  0  0  0  0  0  0  0
   25.6440   17.7980   12.4390 N   0  0  0  0  0  0  0  0  0  0  0  0
   25.4070   18.1520   13.8270 C   0  0  1  0  0  0  0  0  0  0  0  0
   26.3140   17.3720   14.7740 C   0  0  0  0  0  0  0  0  0  0  0  0
   26.0350   17.7950   16.2080 C   0  0  0  0  0  0  0  0  0  0  0  0
   26.1950   19.2860   16.3800 C   0  0  0  0  0  0  0  0  0  0  0  0
   26.6010   19.7900   17.4240 O   0  0  0  0  0  0  0  0  0  0  0  0
   25.8300   20.0700   15.3150 N   0  0  0  0  0  0  0  0  0  0  0  0
   25.6530   19.6520   14.0190 C   0  0  0  0  0  0  0  0  0  0  0  0
   25.6710   20.4580   13.0890 O   0  0  0  0  0  0  0  0  0  0  0  0
   27.0150   15.7900    9.9550 C   0  0  0  0  0  0  0  0  0  0  0  0
   26.9670   15.5760    8.5700 C   0  0  0  0  0  0  0  0  0  0  0  0
   27.8750   15.0170    7.6110 C   0  0  0  0  0  0  0  0  0  0  0  0
   28.9600   10.9070    7.8250 C   0  0  0  0  0  0  0  0  0  0  0  0
   27.8680   10.4800    7.2230 N   0  0  0  0  0  0  0  0  0  0  0  0
   24.8498    9.5653    8.8806 H   0  0  0  0  0  0  0  0  0  0  0  0
   23.8505    9.4962    7.3895 H   0  0  0  0  0  0  0  0  0  0  0  0
   25.5122    8.8140    7.3895 H   0  0  0  0  0  0  0  0  0  0  0  0
   25.3990   11.0209    6.2508 H   0  0  0  0  0  0  0  0  0  0  0  0
   24.8005   11.7475    7.8045 H   0  0  0  0  0  0  0  0  0  0  0  0
   26.7222   12.7127    9.4179 H   0  0  0  0  0  0  0  0  0  0  0  0
   30.8170   13.6056    6.5515 H   0  0  0  0  0  0  0  0  0  0  0  0
   29.6807   13.8214    4.3570 H   0  0  0  0  0  0  0  0  0  0  0  0
   27.3634   14.7660    4.2093 H   0  0  0  0  0  0  0  0  0  0  0  0
   25.3305   15.8389    5.8099 H   0  0  0  0  0  0  0  0  0  0  0  0
   23.8115   16.7749    7.9527 H   0  0  0  0  0  0  0  0  0  0  0  0
   25.6733   18.5495   11.7353 H   0  0  0  0  0  0  0  0  0  0  0  0
   24.3638   17.8975   14.0656 H   0  0  0  0  0  0  0  0  0  0  0  0
   26.1183   16.2951   14.6649 H   0  0  0  0  0  0  0  0  0  0  0  0
   27.3658   17.5807   14.5286 H   0  0  0  0  0  0  0  0  0  0  0  0
   25.0051   17.5122   16.4712 H   0  0  0  0  0  0  0  0  0  0  0  0
   26.7571   17.2897   16.8662 H   0  0  0  0  0  0  0  0  0  0  0  0
   25.6734   21.0699   15.5062 H   0  0  0  0  0  0  0  0  0  0  0  0
   27.9112   15.5527   10.5470 H   0  0  0  0  0  0  0  0  0  0  0  0
   29.9800   10.5720    7.5855 H   0  0  0  0  0  0  0  0  0  0  0  0
  1  2  1  0
  2  3  1  0
  3  4  2  0
  4  5  1  0
  5  6  1  0
  6  7  2  0
  6  8  2  0
  6  9  1  0
  9 10  1  0
 10 11  2  0
 11 12  1  0
 12 13  2  0
 13 14  1  0
 14 15  1  0
 15 16  1  0
 16 17  2  0
 17 18  1  0
 18 19  2  0
 19 20  1  0
 20 21  2  0
 20 22  1  0
 22 23  1  0
 23 24  1  0
 24 25  1  0
 25 26  1  0
 26 27  2  0
 26 28  1  0
 28 29  1  0
 29 30  2  0
 19 31  1  0
 31 32  2  0
 32 33  1  0
  5 34  1  0
 34 35  2  0
 35  3  1  0
 33 10  1  0
 33 14  2  0
 32 16  1  0
 29 23  1  0
  1 36  1  0
  1 37  1  0
  1 38  1  0
  2 39  1  0
  2 40  1  0
  4 41  1  0
 11 42  1  0
 12 43  1  0
 13 44  1  0
 15 45  1  0
 17 46  1  0
 22 47  1  0
 23 48  1  1
 24 49  1  0
 24 50  1  0
 25 51  1  0
 25 52  1  0
 28 53  1  0
 31 54  1  0
 34 55  1  0
M  END
>  <meeko>  (815) 
{"is_sidechain": [true], "free_energy": -11.39, "intermolecular_energy": 0.0, "internal_energy": -11.39, "cluster_size": 19, "cluster_id": 1, "rank_in_cluster": 1}

>  <_RMSD_MCS_to_ref>  (815) 
0.8726857252184199

$$$$
ligand
     RDKit          3D

 59 63  0  0  0  0  0  0  0  0999 V2000
   24.8540    9.4020    7.6050 C   0  0  0  0  0  0  0  0  0  0  0  0
   25.5230   10.7550    7.4270 C   0  0  0  0  0  0  0  0  0  0  0  0
   25.4140   11.2550    6.0290 C   0  0  0  0  0  0  0  0  0  0  0  0
   26.3490   11.9350    5.2750 C   0  0  0  0  0  0  0  0  0  0  0  0
   25.7240   12.1460    4.0790 N   0  0  0  0  0  0  0  0  0  0  0  0
   26.3470   13.0260    2.7920 S   0  0  0  0  0  6  0  0  0  0  0  0
   25.2310   13.3590    1.9290 O   0  0  0  0  0  0  0  0  0  0  0  0
   27.4700   12.2330    2.3250 O   0  0  0  0  0  0  0  0  0  0  0  0
   26.9790   14.5190    3.4950 C   0  0  0  0  0  0  0  0  0  0  0  0
   28.0030   15.2000    2.8200 C   0  0  0  0  0  0  0  0  0  0  0  0
   28.5270   16.3800    3.3530 C   0  0  0  0  0  0  0  0  0  0  0  0
   28.0290   16.8830    4.5540 C   0  0  0  0  0  0  0  0  0  0  0  0
   27.0050   16.2070    5.2150 C   0  0  0  0  0  0  0  0  0  0  0  0
   26.4710   15.0230    4.6900 C   0  0  0  0  0  0  0  0  0  0  0  0
   25.4530   14.3660    5.3360 O   0  0  0  0  0  0  0  0  0  0  0  0
   25.0250   14.9230    6.5190 C   0  0  0  0  0  0  0  0  0  0  0  0
   25.5320   16.0510    7.0320 C   0  0  0  0  0  0  0  0  0  0  0  0
   24.9900   16.5760    8.3280 C   0  0  0  0  0  0  0  0  0  0  0  0
   23.7930   16.7920    8.4680 O   0  0  0  0  0  0  0  0  0  0  0  0
   25.9880   16.7670    9.2640 N   0  0  0  0  0  0  0  0  0  0  0  0
   25.8530   17.2300   10.5870 C   0  0  0  0  0  0  0  0  0  0  0  0
   26.7300   18.2370   11.0060 C   0  0  0  0  0  0  0  0  0  0  0  0
   26.6620   18.7520   12.3050 C   0  0  0  0  0  0  0  0  0  0  0  0
   25.7160   18.2660   13.2170 C   0  0  0  0  0  0  0  0  0  0  0  0
   25.6430   18.8450   14.6200 C   0  0  1  0  0  0  0  0  0  0  0  0
   26.7340   18.2420   15.5120 C   0  0  0  0  0  0  0  0  0  0  0  0
   26.6180   18.8060   16.9190 C   0  0  0  0  0  0  0  0  0  0  0  0
   26.7010   20.3130   16.9070 C   0  0  0  0  0  0  0  0  0  0  0  0
   27.0460   20.9580   17.8920 O   0  0  0  0  0  0  0  0  0  0  0  0
   26.2960   20.9380   15.7550 N   0  0  0  0  0  0  0  0  0  0  0  0
   25.7140   20.3720   14.6430 C   0  0  0  0  0  0  0  0  0  0  0  0
   25.2230   21.0940   13.7780 O   0  0  0  0  0  0  0  0  0  0  0  0
   24.8430   17.2540   12.7940 C   0  0  0  0  0  0  0  0  0  0  0  0
   24.9100   16.7440   11.4910 C   0  0  0  0  0  0  0  0  0  0  0  0
   26.5480   16.7520    6.3940 O   0  0  0  0  0  0  0  0  0  0  0  0
   24.4760   11.6140    4.1270 C   0  0  0  0  0  0  0  0  0  0  0  0
   24.2540   11.0670    5.3050 N   0  0  0  0  0  0  0  0  0  0  0  0
   24.7464    9.1845    8.6779 H   0  0  0  0  0  0  0  0  0  0  0  0
   23.8606    9.4192    7.1330 H   0  0  0  0  0  0  0  0  0  0  0  0
   25.4708    8.6230    7.1330 H   0  0  0  0  0  0  0  0  0  0  0  0
   25.0426   11.4795    8.1011 H   0  0  0  0  0  0  0  0  0  0  0  0
   26.5912   10.6378    7.6621 H   0  0  0  0  0  0  0  0  0  0  0  0
   27.3647   12.2376    5.5697 H   0  0  0  0  0  0  0  0  0  0  0  0
   28.3934   14.8046    1.8707 H   0  0  0  0  0  0  0  0  0  0  0  0
   29.3322   16.9121    2.8253 H   0  0  0  0  0  0  0  0  0  0  0  0
   28.4426   17.8098    4.9783 H   0  0  0  0  0  0  0  0  0  0  0  0
   24.2228   14.4140    7.0734 H   0  0  0  0  0  0  0  0  0  0  0  0
   26.9457   16.5440    8.9574 H   0  0  0  0  0  0  0  0  0  0  0  0
   27.4821   18.6284   10.3052 H   0  0  0  0  0  0  0  0  0  0  0  0
   27.3580   19.5461   12.6133 H   0  0  0  0  0  0  0  0  0  0  0  0
   24.6557   18.5702   15.0196 H   0  0  0  0  0  0  0  0  0  0  0  0
   26.6155   17.1489   15.5457 H   0  0  0  0  0  0  0  0  0  0  0  0
   27.7218   18.4949   15.0993 H   0  0  0  0  0  0  0  0  0  0  0  0
   25.6524   18.5025   17.3496 H   0  0  0  0  0  0  0  0  0  0  0  0
   27.4498   18.4143   17.5229 H   0  0  0  0  0  0  0  0  0  0  0  0
   26.4458   21.9564   15.7172 H   0  0  0  0  0  0  0  0  0  0  0  0
   24.0951   16.8549   13.4949 H   0  0  0  0  0  0  0  0  0  0  0  0
   24.2123   15.9531   11.1786 H   0  0  0  0  0  0  0  0  0  0  0  0
   23.7521   11.6364    3.2991 H   0  0  0  0  0  0  0  0  0  0  0  0
  1  2  1  0
  2  3  1  0
  3  4  2  0
  4  5  1  0
  5  6  1  0
  6  7  2  0
  6  8  2  0
  6  9  1  0
  9 10  2  0
 10 11  1  0
 11 12  2  0
 12 13  1  0
 13 14  2  0
 14 15  1  0
 15 16  1  0
 16 17  2  0
 17 18  1  0
 18 19  2  0
 18 20  1  0
 20 21  1  0
 21 22  2  0
 22 23  1  0
 23 24  2  0
 24 25  1  0
 25 26  1  0
 26 27  1  0
 27 28  1  0
 28 29  2  0
 28 30  1  0
 30 31  1  0
 31 32  2  0
 24 33  1  0
 33 34  2  0
 17 35  1  0
  5 36  1  0
 36 37  2  0
 37  3  1  0
 14  9  1  0
 34 21  1  0
 35 13  1  0
 31 25  1  0
  1 38  1  0
  1 39  1  0
  1 40  1  0
  2 41  1  0
  2 42  1  0
  4 43  1  0
 10 44  1  0
 11 45  1  0
 12 46  1  0
 16 47  1  0
 20 48  1  0
 22 49  1  0
 23 50  1  0
 25 51  1  1
 26 52  1  0
 26 53  1  0
 27 54  1  0
 27 55  1  0
 30 56  1  0
 33 57  1  0
 34 58  1  0
 36 59  1  0
M  END
>  <meeko>  (816) 
{"is_sidechain": [true], "free_energy": -11.38, "intermolecular_energy": 0.0, "internal_energy": -11.38, "cluster_size": 20, "cluster_id": 1, "rank_in_cluster": 1}

>  <_RMSD_MCS_to_ref>  (816) 
0.8190914936684415

$$$$
ligand
     RDKit          3D

 59 63  0  0  0  0  0  0  0  0999 V2000
   24.8540    9.4010    7.6050 C   0  0  0  0  0  0  0  0  0  0  0  0
   25.5230   10.7560    7.4270 C   0  0  0  0  0  0  0  0  0  0  0  0
   26.9890   10.6890    7.6740 C   0  0  0  0  0  0  0  0  0  0  0  0
   27.8570   11.7050    8.0190 C   0  0  0  0  0  0  0  0  0  0  0  0
   29.0810   11.1010    8.0690 N   0  0  0  0  0  0  0  0  0  0  0  0
   30.5680   11.8880    8.1300 S   0  0  0  0  0  6  0  0  0  0  0  0
   31.3540   11.1860    9.1240 O   0  0  0  0  0  0  0  0  0  0  0  0
   30.9810   12.0120    6.7450 O   0  0  0  0  0  0  0  0  0  0  0  0
   30.2210   13.5110    8.7610 C   0  0  0  0  0  0  0  0  0  0  0  0
   31.2880   14.3300    9.1380 C   0  0  0  0  0  0  0  0  0  0  0  0
   31.0320   15.6100    9.6270 C   0  0  0  0  0  0  0  0  0  0  0  0
   29.7160   16.0660    9.7450 C   0  0  0  0  0  0  0  0  0  0  0  0
   28.6420   15.2410    9.3850 C   0  0  0  0  0  0  0  0  0  0  0  0
   27.2500   15.7800    9.5120 C   0  0  0  0  0  0  0  0  0  0  0  0
   26.9340   16.7580    8.8460 O   0  0  0  0  0  0  0  0  0  0  0  0
   26.4340   15.1060   10.3980 N   0  0  0  0  0  0  0  0  0  0  0  0
   25.0530   15.2910   10.6170 C   0  0  0  0  0  0  0  0  0  0  0  0
   24.0320   14.7230    9.8500 C   0  0  0  0  0  0  0  0  0  0  0  0
   22.6720   14.9510   10.1660 C   0  0  0  0  0  0  0  0  0  0  0  0
   22.3060   15.7480   11.2540 C   0  0  0  0  0  0  0  0  0  0  0  0
   23.3280   16.2990   11.9980 C   0  0  0  0  0  0  0  0  0  0  0  0
   24.6560   16.0770   11.6860 C   0  0  0  0  0  0  0  0  0  0  0  0
   25.4590   16.7780   12.6860 C   0  0  0  0  0  0  0  0  0  0  0  0
   26.6770   16.7260   12.7230 O   0  0  0  0  0  0  0  0  0  0  0  0
   24.5900   17.4370   13.5090 N   0  0  0  0  0  0  0  0  0  0  0  0
   25.0210   18.1350   14.7120 C   0  0  1  0  0  0  0  0  0  0  0  0
   26.2240   17.5050   15.4100 C   0  0  0  0  0  0  0  0  0  0  0  0
   26.5490   18.3040   16.6640 C   0  0  0  0  0  0  0  0  0  0  0  0
   26.7990   19.7590   16.3360 C   0  0  0  0  0  0  0  0  0  0  0  0
   27.5130   20.4750   17.0330 O   0  0  0  0  0  0  0  0  0  0  0  0
   26.1340   20.2680   15.2490 N   0  0  0  0  0  0  0  0  0  0  0  0
   25.3120   19.5990   14.3690 C   0  0  0  0  0  0  0  0  0  0  0  0
   24.8040   20.1900   13.4180 O   0  0  0  0  0  0  0  0  0  0  0  0
   23.2910   17.1440   13.1920 C   0  0  0  0  0  0  0  0  0  0  0  0
   22.2690   17.4650   13.7660 O   0  0  0  0  0  0  0  0  0  0  0  0
   28.9010   13.9580    8.8820 C   0  0  0  0  0  0  0  0  0  0  0  0
   28.9400    9.7840    7.7670 C   0  0  0  0  0  0  0  0  0  0  0  0
   27.6770    9.5000    7.5270 N   0  0  0  0  0  0  0  0  0  0  0  0
   24.7465    9.1833    8.6779 H   0  0  0  0  0  0  0  0  0  0  0  0
   23.8606    9.4177    7.1329 H   0  0  0  0  0  0  0  0  0  0  0  0
   25.4713    8.6225    7.1329 H   0  0  0  0  0  0  0  0  0  0  0  0
   25.3515   11.1046    6.3979 H   0  0  0  0  0  0  0  0  0  0  0  0
   25.0857   11.4504    8.1595 H   0  0  0  0  0  0  0  0  0  0  0  0
   27.6174   12.7614    8.2103 H   0  0  0  0  0  0  0  0  0  0  0  0
   32.3228   13.9674    9.0496 H   0  0  0  0  0  0  0  0  0  0  0  0
   31.8674   16.2626    9.9206 H   0  0  0  0  0  0  0  0  0  0  0  0
   29.5219   17.0804   10.1234 H   0  0  0  0  0  0  0  0  0  0  0  0
   26.8890   14.3794   10.9688 H   0  0  0  0  0  0  0  0  0  0  0  0
   24.2896   14.0896    8.9883 H   0  0  0  0  0  0  0  0  0  0  0  0
   21.8887   14.4928    9.5443 H   0  0  0  0  0  0  0  0  0  0  0  0
   21.2503   15.9277   11.5056 H   0  0  0  0  0  0  0  0  0  0  0  0
   24.1930   18.0574   15.4320 H   0  0  0  0  0  0  0  0  0  0  0  0
   25.9873   16.4669   15.6861 H   0  0  0  0  0  0  0  0  0  0  0  0
   27.0903   17.5118   14.7322 H   0  0  0  0  0  0  0  0  0  0  0  0
   25.7028   18.2341   17.3633 H   0  0  0  0  0  0  0  0  0  0  0  0
   27.4611   17.8871   17.1159 H   0  0  0  0  0  0  0  0  0  0  0  0
   26.2656   21.2736   15.0690 H   0  0  0  0  0  0  0  0  0  0  0  0
   28.0681   13.3045    8.5832 H   0  0  0  0  0  0  0  0  0  0  0  0
   29.7649    9.0573    7.7284 H   0  0  0  0  0  0  0  0  0  0  0  0
  1  2  1  0
  2  3  1  0
  3  4  2  0
  4  5  1  0
  5  6  1  0
  6  7  2  0
  6  8  2  0
  6  9  1  0
  9 10  2  0
 10 11  1  0
 11 12  2  0
 12 13  1  0
 13 14  1  0
 14 15  2  0
 14 16  1  0
 16 17  1  0
 17 18  2  0
 18 19  1  0
 19 20  2  0
 20 21  1  0
 21 22  2  0
 22 23  1  0
 23 24  2  0
 23 25  1  0
 25 26  1  0
 26 27  1  0
 27 28  1  0
 28 29  1  0
 29 30  2  0
 29 31  1  0
 31 32  1  0
 32 33  2  0
 25 34  1  0
 34 35  2  0
 13 36  2  0
  5 37  1  0
 37 38  2  0
 38  3  1  0
 36  9  1  0
 22 17  1  0
 32 26  1  0
 34 21  1  0
  1 39  1  0
  1 40  1  0
  1 41  1  0
  2 42  1  0
  2 43  1  0
  4 44  1  0
 10 45  1  0
 11 46  1  0
 12 47  1  0
 16 48  1  0
 18 49  1  0
 19 50  1  0
 20 51  1  0
 26 52  1  1
 27 53  1  0
 27 54  1  0
 28 55  1  0
 28 56  1  0
 31 57  1  0
 36 58  1  0
 37 59  1  0
M  END
>  <meeko>  (817) 
{"is_sidechain": [true], "free_energy": -11.38, "intermolecular_energy": 0.0, "internal_energy": -11.38, "cluster_size": 5, "cluster_id": 1, "rank_in_cluster": 1}

>  <_RMSD_MCS_to_ref>  (817) 
0.34112607639991316

$$$$
ligand
     RDKit          3D

 60 65  0  0  0  0  0  0  0  0999 V2000
   24.8710    9.6160    7.7820 C   0  0  0  0  0  0  0  0  0  0  0  0
   25.4240   10.9650    7.3490 C   0  0  0  0  0  0  0  0  0  0  0  0
   25.3100   11.1730    5.8800 C   0  0  0  0  0  0  0  0  0  0  0  0
   26.2710   11.6000    4.9850 C   0  0  0  0  0  0  0  0  0  0  0  0
   25.6370   11.5740    3.7750 N   0  0  0  0  0  0  0  0  0  0  0  0
   26.2320   12.2220    2.3390 S   0  0  0  0  0  6  0  0  0  0  0  0
   25.2790   11.8170    1.3230 O   0  0  0  0  0  0  0  0  0  0  0  0
   27.6210   11.8040    2.2880 O   0  0  0  0  0  0  0  0  0  0  0  0
   26.1690   13.8430    2.5150 O   0  0  0  0  0  0  0  0  0  0  0  0
   26.1870   14.4790    3.7340 C   0  0  0  0  0  0  0  0  0  0  0  0
   27.2430   15.4770    3.8650 C   0  0  0  0  0  0  0  0  0  0  0  0
   27.4030   16.1950    4.9930 C   0  0  0  0  0  0  0  0  0  0  0  0
   26.5280   15.9830    6.0940 C   0  0  0  0  0  0  0  0  0  0  0  0
   26.4730   16.5410    7.2840 N   0  0  0  0  0  0  0  0  0  0  0  0
   25.4150   15.9360    7.9310 C   0  0  0  0  0  0  0  0  0  0  0  0
   25.0210   16.2770    9.2910 C   0  0  0  0  0  0  0  0  0  0  0  0
   23.7360   15.8940    9.7520 C   0  0  0  0  0  0  0  0  0  0  0  0
   23.2920   16.1930   11.0480 C   0  0  0  0  0  0  0  0  0  0  0  0
   24.1510   16.8770   11.8830 C   0  0  0  0  0  0  0  0  0  0  0  0
   25.4150   17.2500   11.4320 C   0  0  0  0  0  0  0  0  0  0  0  0
   25.8750   16.9720   10.1560 C   0  0  0  0  0  0  0  0  0  0  0  0
   26.0990   17.9540   12.5210 C   0  0  0  0  0  0  0  0  0  0  0  0
   27.2020   18.4580   12.4430 O   0  0  0  0  0  0  0  0  0  0  0  0
   25.2500   17.9180   13.6180 N   0  0  0  0  0  0  0  0  0  0  0  0
   25.4920   18.7270   14.8060 C   0  0  2  0  0  0  0  0  0  0  0  0
   26.1820   20.0480   14.4820 C   0  0  0  0  0  0  0  0  0  0  0  0
   26.3160   20.8740   15.7520 C   0  0  0  0  0  0  0  0  0  0  0  0
   27.0470   20.1040   16.8280 C   0  0  0  0  0  0  0  0  0  0  0  0
   27.8110   20.6470   17.6200 O   0  0  0  0  0  0  0  0  0  0  0  0
   26.8010   18.7560   16.8920 N   0  0  0  0  0  0  0  0  0  0  0  0
   26.3200   17.9770   15.8640 C   0  0  0  0  0  0  0  0  0  0  0  0
   26.5670   16.7740   15.8300 O   0  0  0  0  0  0  0  0  0  0  0  0
   23.9520   17.3400   13.2880 C   0  0  0  0  0  0  0  0  0  0  0  0
   24.8240   14.9960    7.1120 C   0  0  0  0  0  0  0  0  0  0  0  0
   25.5340   15.0250    5.9380 N   0  0  0  0  0  0  0  0  0  0  0  0
   25.3560   14.2750    4.7770 C   0  0  0  0  0  0  0  0  0  0  0  0
   24.3370   11.2310    3.9620 C   0  0  0  0  0  0  0  0  0  0  0  0
   24.1100   10.9550    5.2300 N   0  0  0  0  0  0  0  0  0  0  0  0
   24.8497    9.5640    8.8806 H   0  0  0  0  0  0  0  0  0  0  0  0
   23.8507    9.4948    7.3893 H   0  0  0  0  0  0  0  0  0  0  0  0
   25.5127    8.8135    7.3893 H   0  0  0  0  0  0  0  0  0  0  0  0
   24.8639   11.7594    7.8639 H   0  0  0  0  0  0  0  0  0  0  0  0
   26.4916   10.9931    7.6126 H   0  0  0  0  0  0  0  0  0  0  0  0
   27.3095   11.8939    5.1976 H   0  0  0  0  0  0  0  0  0  0  0  0
   27.9265   15.6475    3.0202 H   0  0  0  0  0  0  0  0  0  0  0  0
   28.2071   16.9424    5.0626 H   0  0  0  0  0  0  0  0  0  0  0  0
   23.0671   15.3457    9.0723 H   0  0  0  0  0  0  0  0  0  0  0  0
   22.2903   15.8916   11.3881 H   0  0  0  0  0  0  0  0  0  0  0  0
   26.8782   17.2867    9.8325 H   0  0  0  0  0  0  0  0  0  0  0  0
   24.4943   18.9404   15.2173 H   0  0  0  0  0  0  0  0  0  0  0  0
   27.1811   19.8480   14.0674 H   0  0  0  0  0  0  0  0  0  0  0  0
   25.5838   20.6033   13.7445 H   0  0  0  0  0  0  0  0  0  0  0  0
   26.8757   21.7934   15.5251 H   0  0  0  0  0  0  0  0  0  0  0  0
   25.3077   21.1156   16.1194 H   0  0  0  0  0  0  0  0  0  0  0  0
   26.9930   18.2854   17.7879 H   0  0  0  0  0  0  0  0  0  0  0  0
   23.7113   16.4979   13.9535 H   0  0  0  0  0  0  0  0  0  0  0  0
   23.1163   18.0460   13.4023 H   0  0  0  0  0  0  0  0  0  0  0  0
   23.9620   14.3557    7.3507 H   0  0  0  0  0  0  0  0  0  0  0  0
   24.5507   13.5285    4.7121 H   0  0  0  0  0  0  0  0  0  0  0  0
   23.5790   11.1893    3.1660 H   0  0  0  0  0  0  0  0  0  0  0  0
  1  2  1  0
  2  3  1  0
  3  4  2  0
  4  5  1  0
  5  6  1  0
  6  7  2  0
  6  8  2  0
  6  9  1  0
  9 10  1  0
 10 11  1  0
 11 12  2  0
 12 13  1  0
 13 14  2  0
 14 15  1  0
 15 16  1  0
 16 17  2  0
 17 18  1  0
 18 19  2  0
 19 20  1  0
 20 21  2  0
 20 22  1  0
 22 23  2  0
 22 24  1  0
 24 25  1  0
 25 26  1  0
 26 27  1  0
 27 28  1  0
 28 29  2  0
 28 30  1  0
 30 31  1  0
 31 32  2  0
 24 33  1  0
 15 34  2  0
 34 35  1  0
 35 36  1  0
  5 37  1  0
 37 38  2  0
 38  3  1  0
 36 10  2  0
 35 13  1  0
 21 16  1  0
 31 25  1  0
 33 19  1  0
  1 39  1  0
  1 40  1  0
  1 41  1  0
  2 42  1  0
  2 43  1  0
  4 44  1  0
 11 45  1  0
 12 46  1  0
 17 47  1  0
 18 48  1  0
 21 49  1  0
 25 50  1  1
 26 51  1  0
 26 52  1  0
 27 53  1  0
 27 54  1  0
 30 55  1  0
 33 56  1  0
 33 57  1  0
 34 58  1  0
 36 59  1  0
 37 60  1  0
M  END
>  <meeko>  (818) 
{"is_sidechain": [true], "free_energy": -11.38, "intermolecular_energy": 0.0, "internal_energy": -11.38, "cluster_size": 20, "cluster_id": 1, "rank_in_cluster": 1}

>  <_RMSD_MCS_to_ref>  (818) 
1.7743392197284784

$$$$
ligand
     RDKit          3D

 60 65  0  0  0  0  0  0  0  0999 V2000
   24.8710    9.6160    7.7820 C   0  0  0  0  0  0  0  0  0  0  0  0
   25.4240   10.9650    7.3490 C   0  0  0  0  0  0  0  0  0  0  0  0
   26.5820   11.4370    8.1620 C   0  0  0  0  0  0  0  0  0  0  0  0
   27.7110   12.1350    7.7760 C   0  0  0  0  0  0  0  0  0  0  0  0
   28.4400   12.2630    8.9230 N   0  0  0  0  0  0  0  0  0  0  0  0
   29.8150   13.2240    9.1140 S   0  0  0  0  0  6  0  0  0  0  0  0
   30.7850   12.6250    8.2160 O   0  0  0  0  0  0  0  0  0  0  0  0
   30.0310   13.2600   10.5500 O   0  0  0  0  0  0  0  0  0  0  0  0
   29.4100   14.6990    8.5330 O   0  0  0  0  0  0  0  0  0  0  0  0
   28.7660   14.7860    7.3310 C   0  0  0  0  0  0  0  0  0  0  0  0
   27.4140   15.1760    7.2800 C   0  0  0  0  0  0  0  0  0  0  0  0
   26.6710   15.5190    8.5010 C   0  0  0  0  0  0  0  0  0  0  0  0
   25.4860   14.8160    8.8380 C   0  0  0  0  0  0  0  0  0  0  0  0
   24.7940   15.0820   10.0210 C   0  0  0  0  0  0  0  0  0  0  0  0
   25.3160   16.0490   10.8560 C   0  0  0  0  0  0  0  0  0  0  0  0
   26.4700   16.7630   10.5490 C   0  0  0  0  0  0  0  0  0  0  0  0
   27.1500   16.5210    9.3670 C   0  0  0  0  0  0  0  0  0  0  0  0
   26.7840   17.7180   11.6500 C   0  0  0  0  0  0  0  0  0  0  0  0
   25.7580   17.4150   12.6390 N   0  0  0  0  0  0  0  0  0  0  0  0
   25.5720   18.2530   13.8170 C   0  0  2  0  0  0  0  0  0  0  0  0
   26.2690   19.6100   13.7240 C   0  0  0  0  0  0  0  0  0  0  0  0
   25.9650   20.4190   14.9750 C   0  0  0  0  0  0  0  0  0  0  0  0
   26.3780   19.6750   16.2230 C   0  0  0  0  0  0  0  0  0  0  0  0
   26.6270   20.2530   17.2770 O   0  0  0  0  0  0  0  0  0  0  0  0
   26.3830   18.3050   16.1500 N   0  0  0  0  0  0  0  0  0  0  0  0
   25.9990   17.5110   15.0940 C   0  0  0  0  0  0  0  0  0  0  0  0
   25.9140   16.2910   15.2320 O   0  0  0  0  0  0  0  0  0  0  0  0
   24.8310   16.5030   12.1630 C   0  0  0  0  0  0  0  0  0  0  0  0
   23.8000   16.1260   12.6850 O   0  0  0  0  0  0  0  0  0  0  0  0
   26.7790   15.2450    6.0170 C   0  0  0  0  0  0  0  0  0  0  0  0
   27.4630   14.9210    4.8380 C   0  0  0  0  0  0  0  0  0  0  0  0
   28.7790   14.5280    4.9450 C   0  0  0  0  0  0  0  0  0  0  0  0
   29.4170   14.4550    6.1590 C   0  0  0  0  0  0  0  0  0  0  0  0
   30.7060   14.0350    6.0430 O   0  0  0  0  0  0  0  0  0  0  0  0
   30.8160   13.8850    4.6120 C   0  0  0  0  0  0  0  0  0  0  0  0
   29.5880   14.1720    3.9110 O   0  0  0  0  0  0  0  0  0  0  0  0
   27.7540   11.6990    9.9500 C   0  0  0  0  0  0  0  0  0  0  0  0
   26.6250   11.1720    9.5210 N   0  0  0  0  0  0  0  0  0  0  0  0
   24.8497    9.5640    8.8806 H   0  0  0  0  0  0  0  0  0  0  0  0
   23.8507    9.4948    7.3893 H   0  0  0  0  0  0  0  0  0  0  0  0
   25.5127    8.8135    7.3893 H   0  0  0  0  0  0  0  0  0  0  0  0
   25.7473   10.8856    6.3006 H   0  0  0  0  0  0  0  0  0  0  0  0
   24.6169   11.6990    7.4898 H   0  0  0  0  0  0  0  0  0  0  0  0
   27.9647   12.5040    6.7713 H   0  0  0  0  0  0  0  0  0  0  0  0
   25.1042   14.0449    8.1527 H   0  0  0  0  0  0  0  0  0  0  0  0
   23.8701   14.5427   10.2772 H   0  0  0  0  0  0  0  0  0  0  0  0
   28.0483   17.1011    9.1092 H   0  0  0  0  0  0  0  0  0  0  0  0
   27.7908   17.5390   12.0553 H   0  0  0  0  0  0  0  0  0  0  0  0
   26.7835   18.7700   11.3287 H   0  0  0  0  0  0  0  0  0  0  0  0
   24.4938   18.4654   13.8651 H   0  0  0  0  0  0  0  0  0  0  0  0
   27.3554   19.4598   13.6387 H   0  0  0  0  0  0  0  0  0  0  0  0
   25.9046   20.1510   12.8383 H   0  0  0  0  0  0  0  0  0  0  0  0
   26.5130   21.3716   14.9278 H   0  0  0  0  0  0  0  0  0  0  0  0
   24.8802   20.5961   15.0191 H   0  0  0  0  0  0  0  0  0  0  0  0
   26.7153   17.8096   16.9896 H   0  0  0  0  0  0  0  0  0  0  0  0
   25.7265   15.5596    5.9599 H   0  0  0  0  0  0  0  0  0  0  0  0
   26.9654   14.9786    3.8587 H   0  0  0  0  0  0  0  0  0  0  0  0
   31.5943   14.5718    4.2480 H   0  0  0  0  0  0  0  0  0  0  0  0
   31.0655   12.8322    4.4135 H   0  0  0  0  0  0  0  0  0  0  0  0
   28.0939   11.6840   10.9961 H   0  0  0  0  0  0  0  0  0  0  0  0
  1  2  1  0
  2  3  1  0
  3  4  2  0
  4  5  1  0
  5  6  1  0
  6  7  2  0
  6  8  2  0
  6  9  1  0
  9 10  1  0
 10 11  1  0
 11 12  1  0
 12 13  2  0
 13 14  1  0
 14 15  2  0
 15 16  1  0
 16 17  2  0
 16 18  1  0
 18 19  1  0
 19 20  1  0
 20 21  1  0
 21 22  1  0
 22 23  1  0
 23 24  2  0
 23 25  1  0
 25 26  1  0
 26 27  2  0
 19 28  1  0
 28 29  2  0
 11 30  2  0
 30 31  1  0
 31 32  2  0
 32 33  1  0
 33 34  1  0
 34 35  1  0
 35 36  1  0
  5 37  1  0
 37 38  2  0
 38  3  1  0
 33 10  2  0
 17 12  1  0
 26 20  1  0
 36 32  1  0
 28 15  1  0
  1 39  1  0
  1 40  1  0
  1 41  1  0
  2 42  1  0
  2 43  1  0
  4 44  1  0
 13 45  1  0
 14 46  1  0
 17 47  1  0
 18 48  1  0
 18 49  1  0
 20 50  1  1
 21 51  1  0
 21 52  1  0
 22 53  1  0
 22 54  1  0
 25 55  1  0
 30 56  1  0
 31 57  1  0
 35 58  1  0
 35 59  1  0
 37 60  1  0
M  END
>  <meeko>  (819) 
{"is_sidechain": [true], "free_energy": -11.38, "intermolecular_energy": 0.0, "internal_energy": -11.38, "cluster_size": 6, "cluster_id": 1, "rank_in_cluster": 1}

>  <_RMSD_MCS_to_ref>  (819) 
1.9521774347743353

$$$$
ligand
     RDKit          3D

 50 53  0  0  0  0  0  0  0  0999 V2000
   24.8710    9.6160    7.7820 C   0  0  0  0  0  0  0  0  0  0  0  0
   25.4240   10.9650    7.3490 C   0  0  0  0  0  0  0  0  0  0  0  0
   26.8940   11.0620    7.5580 C   0  0  0  0  0  0  0  0  0  0  0  0
   27.5950   11.8530    8.4480 C   0  0  0  0  0  0  0  0  0  0  0  0
   28.9030   11.5280    8.2290 N   0  0  0  0  0  0  0  0  0  0  0  0
   30.2460   12.3680    8.8140 S   0  0  0  0  0  6  0  0  0  0  0  0
   30.2210   12.1680   10.2500 O   0  0  0  0  0  0  0  0  0  0  0  0
   31.3500   11.8830    8.0070 O   0  0  0  0  0  0  0  0  0  0  0  0
   30.0250   13.9550    8.4720 O   0  0  0  0  0  0  0  0  0  0  0  0
   28.7720   14.4960    8.5730 C   0  0  0  0  0  0  0  0  0  0  0  0
   27.9540   14.4760    7.4510 C   0  0  0  0  0  0  0  0  0  0  0  0
   26.6770   15.0340    7.5290 C   0  0  0  0  0  0  0  0  0  0  0  0
   26.2170   15.6260    8.6970 C   0  0  0  0  0  0  0  0  0  0  0  0
   24.9770   16.1500    8.7310 N   0  0  0  0  0  0  0  0  0  0  0  0
   24.5920   16.7190    9.9000 C   0  0  0  0  0  0  0  0  0  0  0  0
   25.4250   16.7600   11.0010 C   0  0  0  0  0  0  0  0  0  0  0  0
   24.9670   17.3990   12.2650 C   0  0  0  0  0  0  0  0  0  0  0  0
   23.8000   17.7360   12.4260 O   0  0  0  0  0  0  0  0  0  0  0  0
   25.9520   17.5840   13.2090 N   0  0  0  0  0  0  0  0  0  0  0  0
   25.7330   18.3340   14.4320 C   0  0  1  0  0  0  0  0  0  0  0  0
   26.5160   17.7520   15.6050 C   0  0  0  0  0  0  0  0  0  0  0  0
   26.2650   18.5900   16.8490 C   0  0  0  0  0  0  0  0  0  0  0  0
   26.6070   20.0420   16.6100 C   0  0  0  0  0  0  0  0  0  0  0  0
   27.0560   20.7670   17.4940 O   0  0  0  0  0  0  0  0  0  0  0  0
   26.3610   20.5330   15.3530 N   0  0  0  0  0  0  0  0  0  0  0  0
   26.1620   19.7890   14.2150 C   0  0  0  0  0  0  0  0  0  0  0  0
   26.3080   20.2880   13.1000 O   0  0  0  0  0  0  0  0  0  0  0  0
   26.6810   16.2340   10.9890 N   0  0  0  0  0  0  0  0  0  0  0  0
   27.0720   15.6670    9.8330 C   0  0  0  0  0  0  0  0  0  0  0  0
   28.3390   15.1070    9.7480 C   0  0  0  0  0  0  0  0  0  0  0  0
   28.9730   10.6280    7.2140 C   0  0  0  0  0  0  0  0  0  0  0  0
   27.7660   10.3140    6.7920 N   0  0  0  0  0  0  0  0  0  0  0  0
   24.8497    9.5640    8.8806 H   0  0  0  0  0  0  0  0  0  0  0  0
   23.8507    9.4948    7.3893 H   0  0  0  0  0  0  0  0  0  0  0  0
   25.5127    8.8135    7.3893 H   0  0  0  0  0  0  0  0  0  0  0  0
   25.2076   11.1103    6.2803 H   0  0  0  0  0  0  0  0  0  0  0  0
   24.9432   11.7405    7.9633 H   0  0  0  0  0  0  0  0  0  0  0  0
   27.1913   12.5792    9.1688 H   0  0  0  0  0  0  0  0  0  0  0  0
   28.3082   14.0258    6.5120 H   0  0  0  0  0  0  0  0  0  0  0  0
   26.0214   15.0039    6.6462 H   0  0  0  0  0  0  0  0  0  0  0  0
   23.5873   17.1607    9.9736 H   0  0  0  0  0  0  0  0  0  0  0  0
   26.8816   17.1737   13.0405 H   0  0  0  0  0  0  0  0  0  0  0  0
   24.6621   18.2759   14.6764 H   0  0  0  0  0  0  0  0  0  0  0  0
   26.1882   16.7179   15.7874 H   0  0  0  0  0  0  0  0  0  0  0  0
   27.5902   17.7603   15.3684 H   0  0  0  0  0  0  0  0  0  0  0  0
   25.2030   18.5126   17.1251 H   0  0  0  0  0  0  0  0  0  0  0  0
   26.9058   18.2107   17.6586 H   0  0  0  0  0  0  0  0  0  0  0  0
   26.3217   21.5573   15.2526 H   0  0  0  0  0  0  0  0  0  0  0  0
   29.0097   15.1460   10.6190 H   0  0  0  0  0  0  0  0  0  0  0  0
   29.9073   10.2188    6.8022 H   0  0  0  0  0  0  0  0  0  0  0  0
  1  2  1  0
  2  3  1  0
  3  4  2  0
  4  5  1  0
  5  6  1  0
  6  7  2  0
  6  8  2  0
  6  9  1  0
  9 10  1  0
 10 11  2  0
 11 12  1  0
 12 13  2  0
 13 14  1  0
 14 15  2  0
 15 16  1  0
 16 17  1  0
 17 18  2  0
 17 19  1  0
 19 20  1  0
 20 21  1  0
 21 22  1  0
 22 23  1  0
 23 24  2  0
 23 25  1  0
 25 26  1  0
 26 27  2  0
 16 28  2  0
 28 29  1  0
 29 30  2  0
  5 31  1  0
 31 32  2  0
 32  3  1  0
 30 10  1  0
 29 13  1  0
 26 20  1  0
  1 33  1  0
  1 34  1  0
  1 35  1  0
  2 36  1  0
  2 37  1  0
  4 38  1  0
 11 39  1  0
 12 40  1  0
 15 41  1  0
 19 42  1  0
 20 43  1  1
 21 44  1  0
 21 45  1  0
 22 46  1  0
 22 47  1  0
 25 48  1  0
 30 49  1  0
 31 50  1  0
M  END
>  <meeko>  (820) 
{"is_sidechain": [true], "free_energy": -11.38, "intermolecular_energy": 0.0, "internal_energy": -11.38, "cluster_size": 20, "cluster_id": 1, "rank_in_cluster": 1}

>  <_RMSD_MCS_to_ref>  (820) 
0.9856719648149794

$$$$
ligand
     RDKit          3D

 47 50  0  0  0  0  0  0  0  0999 V2000
   24.8710    9.6160    7.7820 C   0  0  0  0  0  0  0  0  0  0  0  0
   25.4240   10.9650    7.3490 C   0  0  0  0  0  0  0  0  0  0  0  0
   26.5560   11.4120    8.2060 C   0  0  0  0  0  0  0  0  0  0  0  0
   27.5050   12.3820    7.9560 C   0  0  0  0  0  0  0  0  0  0  0  0
   28.3110   12.3550    9.0580 N   0  0  0  0  0  0  0  0  0  0  0  0
   29.5050   13.4830    9.4330 S   0  0  0  0  0  6  0  0  0  0  0  0
   29.7200   13.3390   10.8600 O   0  0  0  0  0  0  0  0  0  0  0  0
   30.5680   13.2320    8.4770 O   0  0  0  0  0  0  0  0  0  0  0  0
   28.8550   14.9470    9.1340 O   0  0  0  0  0  0  0  0  0  0  0  0
   27.5820   15.2890    9.5230 C   0  0  0  0  0  0  0  0  0  0  0  0
   27.5220   16.1950   10.5820 C   0  0  0  0  0  0  0  0  0  0  0  0
   26.2890   16.6430   11.1000 C   0  0  0  0  0  0  0  0  0  0  0  0
   26.3090   17.6100   12.2270 C   0  0  0  0  0  0  0  0  0  0  0  0
   27.2460   18.3960   12.3360 O   0  0  0  0  0  0  0  0  0  0  0  0
   25.2700   17.5800   13.1250 N   0  0  0  0  0  0  0  0  0  0  0  0
   25.2480   18.4360   14.3020 C   0  0  1  0  0  0  0  0  0  0  0  0
   26.2600   17.9810   15.3490 C   0  0  0  0  0  0  0  0  0  0  0  0
   26.2040   18.9140   16.5480 C   0  0  0  0  0  0  0  0  0  0  0  0
   26.4300   20.3500   16.1370 C   0  0  0  0  0  0  0  0  0  0  0  0
   26.9930   21.1620   16.8650 O   0  0  0  0  0  0  0  0  0  0  0  0
   25.9390   20.7220   14.9110 N   0  0  0  0  0  0  0  0  0  0  0  0
   25.5620   19.8790   13.8950 C   0  0  0  0  0  0  0  0  0  0  0  0
   25.4700   20.2870   12.7380 O   0  0  0  0  0  0  0  0  0  0  0  0
   25.0910   16.1680   10.5260 C   0  0  0  0  0  0  0  0  0  0  0  0
   23.7820   16.4950   10.8850 N   0  0  0  0  0  0  0  0  0  0  0  0
   22.8870   15.8730   10.1430 N   0  0  0  0  0  0  0  0  0  0  0  0
   23.5690   14.8760    8.9940 S   0  0  0  0  0  0  0  0  0  0  0  0
   25.1850   15.2600    9.4640 C   0  0  0  0  0  0  0  0  0  0  0  0
   26.4080   14.8040    8.9450 C   0  0  0  0  0  0  0  0  0  0  0  0
   27.8100   11.4650    9.9530 C   0  0  0  0  0  0  0  0  0  0  0  0
   26.7560   10.8540    9.4540 N   0  0  0  0  0  0  0  0  0  0  0  0
   24.8497    9.5640    8.8806 H   0  0  0  0  0  0  0  0  0  0  0  0
   23.8507    9.4948    7.3893 H   0  0  0  0  0  0  0  0  0  0  0  0
   25.5127    8.8135    7.3893 H   0  0  0  0  0  0  0  0  0  0  0  0
   25.7764   10.8860    6.3100 H   0  0  0  0  0  0  0  0  0  0  0  0
   24.6167   11.7061    7.4437 H   0  0  0  0  0  0  0  0  0  0  0  0
   27.5923   13.0293    7.0709 H   0  0  0  0  0  0  0  0  0  0  0  0
   28.4578   16.5686   11.0232 H   0  0  0  0  0  0  0  0  0  0  0  0
   24.4848   16.9339   12.9609 H   0  0  0  0  0  0  0  0  0  0  0  0
   24.2425   18.3727   14.7436 H   0  0  0  0  0  0  0  0  0  0  0  0
   26.0198   16.9567   15.6701 H   0  0  0  0  0  0  0  0  0  0  0  0
   27.2706   18.0022   14.9152 H   0  0  0  0  0  0  0  0  0  0  0  0
   25.2154   18.8285   17.0227 H   0  0  0  0  0  0  0  0  0  0  0  0
   26.9994   18.6246   17.2506 H   0  0  0  0  0  0  0  0  0  0  0  0
   25.8439   21.7325   14.7357 H   0  0  0  0  0  0  0  0  0  0  0  0
   26.4394   14.0881    8.1104 H   0  0  0  0  0  0  0  0  0  0  0  0
   28.2264   11.2805   10.9543 H   0  0  0  0  0  0  0  0  0  0  0  0
  1  2  1  0
  2  3  1  0
  3  4  2  0
  4  5  1  0
  5  6  1  0
  6  7  2  0
  6  8  2  0
  6  9  1  0
  9 10  1  0
 10 11  2  0
 11 12  1  0
 12 13  1  0
 13 14  2  0
 13 15  1  0
 15 16  1  0
 16 17  1  0
 17 18  1  0
 18 19  1  0
 19 20  2  0
 19 21  1  0
 21 22  1  0
 22 23  2  0
 12 24  2  0
 24 25  1  0
 25 26  2  0
 26 27  1  0
 27 28  1  0
 28 29  2  0
  5 30  1  0
 30 31  2  0
 31  3  1  0
 29 10  1  0
 22 16  1  0
 28 24  1  0
  1 32  1  0
  1 33  1  0
  1 34  1  0
  2 35  1  0
  2 36  1  0
  4 37  1  0
 11 38  1  0
 15 39  1  0
 16 40  1  1
 17 41  1  0
 17 42  1  0
 18 43  1  0
 18 44  1  0
 21 45  1  0
 29 46  1  0
 30 47  1  0
M  END
>  <meeko>  (821) 
{"is_sidechain": [true], "free_energy": -11.38, "intermolecular_energy": 0.0, "internal_energy": -11.38, "cluster_size": 5, "cluster_id": 1, "rank_in_cluster": 1}

>  <_RMSD_MCS_to_ref>  (821) 
0.7343446057540023

$$$$
ligand
     RDKit          3D

 53 57  0  0  0  0  0  0  0  0999 V2000
   24.8540    9.4020    7.6050 C   0  0  0  0  0  0  0  0  0  0  0  0
   25.5230   10.7550    7.4270 C   0  0  0  0  0  0  0  0  0  0  0  0
   27.0070   10.6460    7.3790 C   0  0  0  0  0  0  0  0  0  0  0  0
   27.9270   11.5350    6.8580 C   0  0  0  0  0  0  0  0  0  0  0  0
   29.1310   10.9190    7.0480 N   0  0  0  0  0  0  0  0  0  0  0  0
   30.6430   11.6370    6.8430 S   0  0  0  0  0  6  0  0  0  0  0  0
   31.1460   11.0770    5.6040 O   0  0  0  0  0  0  0  0  0  0  0  0
   31.3220   11.4330    8.1090 O   0  0  0  0  0  0  0  0  0  0  0  0
   30.3470   13.2350    6.6430 O   0  0  0  0  0  0  0  0  0  0  0  0
   30.1740   14.0260    7.7550 C   0  0  0  0  0  0  0  0  0  0  0  0
   31.1870   14.1250    8.7080 C   0  0  0  0  0  0  0  0  0  0  0  0
   30.9880   14.9050    9.8390 C   0  0  0  0  0  0  0  0  0  0  0  0
   29.7750   15.5740   10.0210 C   0  0  0  0  0  0  0  0  0  0  0  0
   28.7170   15.4820    9.0820 C   0  0  0  0  0  0  0  0  0  0  0  0
   27.4580   16.1280    9.2270 C   0  0  0  0  0  0  0  0  0  0  0  0
   27.1320   16.9830   10.3500 C   0  0  0  0  0  0  0  0  0  0  0  0
   26.0130   16.8880   11.1470 C   0  0  0  0  0  0  0  0  0  0  0  0
   26.1580   17.9100   12.0390 N   0  0  0  0  0  0  0  0  0  0  0  0
   25.2740   18.2700   13.1300 C   0  0  1  0  0  0  0  0  0  0  0  0
   25.4690   17.4440   14.4040 C   0  0  0  0  0  0  0  0  0  0  0  0
   26.6790   17.8880   15.2130 C   0  0  0  0  0  0  0  0  0  0  0  0
   26.6740   19.3750   15.4600 C   0  0  0  0  0  0  0  0  0  0  0  0
   27.1890   19.8780   16.4540 O   0  0  0  0  0  0  0  0  0  0  0  0
   26.0840   20.1570   14.5000 N   0  0  0  0  0  0  0  0  0  0  0  0
   25.3560   19.7560   13.4060 C   0  0  0  0  0  0  0  0  0  0  0  0
   24.7980   20.5850   12.6890 O   0  0  0  0  0  0  0  0  0  0  0  0
   27.2950   18.5910   11.8170 N   0  0  0  0  0  0  0  0  0  0  0  0
   27.8990   18.0330   10.7770 N   0  0  0  0  0  0  0  0  0  0  0  0
   26.4990   15.9330    8.2340 C   0  0  0  0  0  0  0  0  0  0  0  0
   26.6720   15.1590    7.1420 N   0  0  0  0  0  0  0  0  0  0  0  0
   27.8770   14.5600    7.0220 C   0  0  0  0  0  0  0  0  0  0  0  0
   28.9320   14.6760    7.9380 C   0  0  0  0  0  0  0  0  0  0  0  0
   28.9360    9.7610    7.7280 C   0  0  0  0  0  0  0  0  0  0  0  0
   27.6510    9.5520    7.9230 N   0  0  0  0  0  0  0  0  0  0  0  0
   24.7464    9.1845    8.6779 H   0  0  0  0  0  0  0  0  0  0  0  0
   23.8606    9.4192    7.1330 H   0  0  0  0  0  0  0  0  0  0  0  0
   25.4708    8.6230    7.1330 H   0  0  0  0  0  0  0  0  0  0  0  0
   25.1701   11.2039    6.4868 H   0  0  0  0  0  0  0  0  0  0  0  0
   25.2579   11.3796    8.2928 H   0  0  0  0  0  0  0  0  0  0  0  0
   27.7341   12.5145    6.3960 H   0  0  0  0  0  0  0  0  0  0  0  0
   32.1368   13.5890    8.5647 H   0  0  0  0  0  0  0  0  0  0  0  0
   31.7850   14.9963   10.5916 H   0  0  0  0  0  0  0  0  0  0  0  0
   29.6367   16.1913   10.9209 H   0  0  0  0  0  0  0  0  0  0  0  0
   25.1930   16.1579   11.0800 H   0  0  0  0  0  0  0  0  0  0  0  0
   24.2569   18.0209   12.7933 H   0  0  0  0  0  0  0  0  0  0  0  0
   24.5705   17.5459   15.0303 H   0  0  0  0  0  0  0  0  0  0  0  0
   25.6374   16.4002   14.1004 H   0  0  0  0  0  0  0  0  0  0  0  0
   26.6703   17.3664   16.1815 H   0  0  0  0  0  0  0  0  0  0  0  0
   27.5835   17.6406   14.6379 H   0  0  0  0  0  0  0  0  0  0  0  0
   26.2016   21.1739   14.6137 H   0  0  0  0  0  0  0  0  0  0  0  0
   25.5329   16.4464    8.3487 H   0  0  0  0  0  0  0  0  0  0  0  0
   28.0436   13.9312    6.1350 H   0  0  0  0  0  0  0  0  0  0  0  0
   29.7391    9.0909    8.0685 H   0  0  0  0  0  0  0  0  0  0  0  0
  1  2  1  0
  2  3  1  0
  3  4  2  0
  4  5  1  0
  5  6  1  0
  6  7  2  0
  6  8  2  0
  6  9  1  0
  9 10  1  0
 10 11  2  0
 11 12  1  0
 12 13  2  0
 13 14  1  0
 14 15  2  0
 15 16  1  0
 16 17  2  0
 17 18  1  0
 18 19  1  0
 19 20  1  0
 20 21  1  0
 21 22  1  0
 22 23  2  0
 22 24  1  0
 24 25  1  0
 25 26  2  0
 18 27  1  0
 27 28  2  0
 15 29  1  0
 29 30  2  0
 30 31  1  0
 31 32  2  0
  5 33  1  0
 33 34  2  0
 34  3  1  0
 32 10  1  0
 32 14  1  0
 28 16  1  0
 25 19  1  0
  1 35  1  0
  1 36  1  0
  1 37  1  0
  2 38  1  0
  2 39  1  0
  4 40  1  0
 11 41  1  0
 12 42  1  0
 13 43  1  0
 17 44  1  0
 19 45  1  6
 20 46  1  0
 20 47  1  0
 21 48  1  0
 21 49  1  0
 24 50  1  0
 29 51  1  0
 31 52  1  0
 33 53  1  0
M  END
>  <meeko>  (822) 
{"is_sidechain": [true], "free_energy": -11.37, "intermolecular_energy": 0.0, "internal_energy": -11.37, "cluster_size": 20, "cluster_id": 1, "rank_in_cluster": 1}

>  <_RMSD_MCS_to_ref>  (822) 
1.3289502122602885

$$$$
ligand
     RDKit          3D

 59 64  0  0  0  0  0  0  0  0999 V2000
   24.8710    9.6160    7.7820 C   0  0  0  0  0  0  0  0  0  0  0  0
   25.4240   10.9650    7.3490 C   0  0  0  0  0  0  0  0  0  0  0  0
   26.5700   11.3980    8.1920 C   0  0  0  0  0  0  0  0  0  0  0  0
   27.6470   12.1940    7.8510 C   0  0  0  0  0  0  0  0  0  0  0  0
   28.3840   12.2670    9.0000 N   0  0  0  0  0  0  0  0  0  0  0  0
   29.7540   13.2250    9.2260 S   0  0  0  0  0  6  0  0  0  0  0  0
   29.9460   13.3110   10.6640 O   0  0  0  0  0  0  0  0  0  0  0  0
   30.7620   12.5950    8.3910 O   0  0  0  0  0  0  0  0  0  0  0  0
   29.4780   14.7110    8.6280 O   0  0  0  0  0  0  0  0  0  0  0  0
   28.8420   14.7950    7.4130 C   0  0  0  0  0  0  0  0  0  0  0  0
   29.6080   14.4880    6.3430 N   0  0  0  0  0  0  0  0  0  0  0  0
   28.9600   14.6350    5.1750 C   0  0  0  0  0  0  0  0  0  0  0  0
   29.4620   14.3770    3.9300 N   0  0  0  0  0  0  0  0  0  0  0  0
   28.5820   14.6230    2.9360 N   0  0  0  0  0  0  0  0  0  0  0  0
   27.4880   15.0410    3.5840 C   0  0  0  0  0  0  0  0  0  0  0  0
   27.6610   15.0690    4.9840 C   0  0  0  0  0  0  0  0  0  0  0  0
   26.9080   15.3980    6.1220 C   0  0  0  0  0  0  0  0  0  0  0  0
   27.5160   15.2560    7.3830 C   0  0  0  0  0  0  0  0  0  0  0  0
   26.7620   15.5690    8.6050 C   0  0  0  0  0  0  0  0  0  0  0  0
   25.6020   14.8260    8.9370 C   0  0  0  0  0  0  0  0  0  0  0  0
   24.8660   15.1050   10.0930 C   0  0  0  0  0  0  0  0  0  0  0  0
   25.3130   16.1350   10.8960 C   0  0  0  0  0  0  0  0  0  0  0  0
   26.4520   16.8800   10.6000 C   0  0  0  0  0  0  0  0  0  0  0  0
   27.1890   16.6050    9.4600 C   0  0  0  0  0  0  0  0  0  0  0  0
   26.6870   17.9000   11.6640 C   0  0  0  0  0  0  0  0  0  0  0  0
   25.5300   17.7240   12.5330 N   0  0  0  0  0  0  0  0  0  0  0  0
   25.4230   18.3210   13.8590 C   0  0  2  0  0  0  0  0  0  0  0  0
   26.2940   19.5640   14.0110 C   0  0  0  0  0  0  0  0  0  0  0  0
   26.0600   20.1780   15.3830 C   0  0  0  0  0  0  0  0  0  0  0  0
   26.3130   19.1740   16.4820 C   0  0  0  0  0  0  0  0  0  0  0  0
   26.8040   19.4890   17.5620 O   0  0  0  0  0  0  0  0  0  0  0  0
   25.9470   17.8770   16.2240 N   0  0  0  0  0  0  0  0  0  0  0  0
   25.7750   17.3230   14.9750 C   0  0  0  0  0  0  0  0  0  0  0  0
   25.9140   16.1140   14.8090 O   0  0  0  0  0  0  0  0  0  0  0  0
   24.7500   16.6410   12.1510 C   0  0  0  0  0  0  0  0  0  0  0  0
   23.7830   16.1750   12.7230 O   0  0  0  0  0  0  0  0  0  0  0  0
   27.7580   11.5630    9.9780 C   0  0  0  0  0  0  0  0  0  0  0  0
   26.6500   11.0170    9.5190 N   0  0  0  0  0  0  0  0  0  0  0  0
   24.8497    9.5640    8.8806 H   0  0  0  0  0  0  0  0  0  0  0  0
   23.8507    9.4948    7.3893 H   0  0  0  0  0  0  0  0  0  0  0  0
   25.5127    8.8135    7.3893 H   0  0  0  0  0  0  0  0  0  0  0  0
   25.7604   10.8914    6.3043 H   0  0  0  0  0  0  0  0  0  0  0  0
   24.6225   11.7102    7.4594 H   0  0  0  0  0  0  0  0  0  0  0  0
   27.8618   12.6613    6.8787 H   0  0  0  0  0  0  0  0  0  0  0  0
   30.4176   14.0292    3.7663 H   0  0  0  0  0  0  0  0  0  0  0  0
   26.5547   15.3314    3.0795 H   0  0  0  0  0  0  0  0  0  0  0  0
   25.8721   15.7566    6.0306 H   0  0  0  0  0  0  0  0  0  0  0  0
   25.2738   14.0134    8.2721 H   0  0  0  0  0  0  0  0  0  0  0  0
   23.9668   14.5268   10.3520 H   0  0  0  0  0  0  0  0  0  0  0  0
   28.0932   17.1859    9.2256 H   0  0  0  0  0  0  0  0  0  0  0  0
   27.6240   17.7012   12.2049 H   0  0  0  0  0  0  0  0  0  0  0  0
   26.7903   18.9235   11.2743 H   0  0  0  0  0  0  0  0  0  0  0  0
   24.3679   18.6151   13.9606 H   0  0  0  0  0  0  0  0  0  0  0  0
   27.3532   19.2850   13.9092 H   0  0  0  0  0  0  0  0  0  0  0  0
   26.0325   20.2945   13.2312 H   0  0  0  0  0  0  0  0  0  0  0  0
   26.7402   21.0324   15.5143 H   0  0  0  0  0  0  0  0  0  0  0  0
   25.0111   20.5037   15.4441 H   0  0  0  0  0  0  0  0  0  0  0  0
   25.7868   17.2638   17.0359 H   0  0  0  0  0  0  0  0  0  0  0  0
   28.1249   11.4625   11.0101 H   0  0  0  0  0  0  0  0  0  0  0  0
  1  2  1  0
  2  3  1  0
  3  4  2  0
  4  5  1  0
  5  6  1  0
  6  7  2  0
  6  8  2  0
  6  9  1  0
  9 10  1  0
 10 11  2  0
 11 12  1  0
 12 13  1  0
 13 14  1  0
 14 15  2  0
 15 16  1  0
 16 17  1  0
 17 18  2  0
 18 19  1  0
 19 20  2  0
 20 21  1  0
 21 22  2  0
 22 23  1  0
 23 24  2  0
 23 25  1  0
 25 26  1  0
 26 27  1  0
 27 28  1  0
 28 29  1  0
 29 30  1  0
 30 31  2  0
 30 32  1  0
 32 33  1  0
 33 34  2  0
 26 35  1  0
 35 36  2  0
  5 37  1  0
 37 38  2  0
 38  3  1  0
 18 10  1  0
 24 19  1  0
 33 27  1  0
 16 12  2  0
 35 22  1  0
  1 39  1  0
  1 40  1  0
  1 41  1  0
  2 42  1  0
  2 43  1  0
  4 44  1  0
 13 45  1  0
 15 46  1  0
 17 47  1  0
 20 48  1  0
 21 49  1  0
 24 50  1  0
 25 51  1  0
 25 52  1  0
 27 53  1  1
 28 54  1  0
 28 55  1  0
 29 56  1  0
 29 57  1  0
 32 58  1  0
 37 59  1  0
M  END
>  <meeko>  (823) 
{"is_sidechain": [true], "free_energy": -11.37, "intermolecular_energy": 0.0, "internal_energy": -11.37, "cluster_size": 7, "cluster_id": 1, "rank_in_cluster": 1}

>  <_RMSD_MCS_to_ref>  (823) 
1.95145588026775

$$$$
ligand
     RDKit          3D

 49 52  0  0  0  0  0  0  0  0999 V2000
   24.8710    9.6160    7.7820 C   0  0  0  0  0  0  0  0  0  0  0  0
   25.4240   10.9650    7.3490 C   0  0  0  0  0  0  0  0  0  0  0  0
   26.5360   11.4250    8.2240 C   0  0  0  0  0  0  0  0  0  0  0  0
   27.4790   12.4050    7.9880 C   0  0  0  0  0  0  0  0  0  0  0  0
   28.2630   12.3920    9.1050 N   0  0  0  0  0  0  0  0  0  0  0  0
   29.4400   13.5330    9.4950 S   0  0  0  0  0  6  0  0  0  0  0  0
   29.7930   13.2500   10.8740 O   0  0  0  0  0  0  0  0  0  0  0  0
   30.4210   13.4340    8.4290 O   0  0  0  0  0  0  0  0  0  0  0  0
   28.7070   14.9820    9.4170 O   0  0  0  0  0  0  0  0  0  0  0  0
   27.4030   15.0980    9.6060 C   0  0  0  0  0  0  0  0  0  0  0  0
   26.2610   14.9050    8.8590 C   0  0  0  0  0  0  0  0  0  0  0  0
   25.1660   15.2210    9.7090 C   0  0  0  0  0  0  0  0  0  0  0  0
   23.7670   15.2270    9.5680 C   0  0  0  0  0  0  0  0  0  0  0  0
   22.9790   15.6040   10.6640 C   0  0  0  0  0  0  0  0  0  0  0  0
   23.5670   15.9670   11.8790 C   0  0  0  0  0  0  0  0  0  0  0  0
   24.9640   15.9720   12.0460 C   0  0  0  0  0  0  0  0  0  0  0  0
   25.5510   16.3590   13.3510 C   0  0  0  0  0  0  0  0  0  0  0  0
   25.8630   15.4980   14.1670 O   0  0  0  0  0  0  0  0  0  0  0  0
   25.7280   17.7020   13.5900 N   0  0  0  0  0  0  0  0  0  0  0  0
   26.4210   18.1920   14.7710 C   0  0  2  0  0  0  0  0  0  0  0  0
   25.5040   18.2630   15.9880 C   0  0  0  0  0  0  0  0  0  0  0  0
   26.2820   18.8050   17.1770 C   0  0  0  0  0  0  0  0  0  0  0  0
   26.9030   20.1450   16.8610 C   0  0  0  0  0  0  0  0  0  0  0  0
   27.0400   21.0240   17.7070 O   0  0  0  0  0  0  0  0  0  0  0  0
   27.3420   20.3320   15.5750 N   0  0  0  0  0  0  0  0  0  0  0  0
   26.9680   19.5940   14.4780 C   0  0  0  0  0  0  0  0  0  0  0  0
   27.0880   20.0480   13.3400 O   0  0  0  0  0  0  0  0  0  0  0  0
   25.7190   15.5910   10.9330 C   0  0  0  0  0  0  0  0  0  0  0  0
   27.0810   15.5160   10.8580 O   0  0  0  0  0  0  0  0  0  0  0  0
   27.7550   11.5000    9.9940 C   0  0  0  0  0  0  0  0  0  0  0  0
   26.7200   10.8720    9.4760 N   0  0  0  0  0  0  0  0  0  0  0  0
   24.8497    9.5640    8.8806 H   0  0  0  0  0  0  0  0  0  0  0  0
   23.8507    9.4948    7.3893 H   0  0  0  0  0  0  0  0  0  0  0  0
   25.5127    8.8135    7.3893 H   0  0  0  0  0  0  0  0  0  0  0  0
   25.7970   10.8802    6.3176 H   0  0  0  0  0  0  0  0  0  0  0  0
   24.6106   11.7020    7.4219 H   0  0  0  0  0  0  0  0  0  0  0  0
   27.5763   13.0494    7.1018 H   0  0  0  0  0  0  0  0  0  0  0  0
   26.2073   14.5722    7.8119 H   0  0  0  0  0  0  0  0  0  0  0  0
   23.2993   14.9409    8.6144 H   0  0  0  0  0  0  0  0  0  0  0  0
   21.8834   15.6144   10.5667 H   0  0  0  0  0  0  0  0  0  0  0  0
   22.9233   16.2551   12.7232 H   0  0  0  0  0  0  0  0  0  0  0  0
   25.3579   18.3823   12.9109 H   0  0  0  0  0  0  0  0  0  0  0  0
   27.2340   17.4882   15.0026 H   0  0  0  0  0  0  0  0  0  0  0  0
   24.6561   18.9290   15.7700 H   0  0  0  0  0  0  0  0  0  0  0  0
   25.1280   17.2564   16.2234 H   0  0  0  0  0  0  0  0  0  0  0  0
   25.5980   18.9194   18.0309 H   0  0  0  0  0  0  0  0  0  0  0  0
   27.0883   18.0963   17.4168 H   0  0  0  0  0  0  0  0  0  0  0  0
   28.0142   21.0963   15.4171 H   0  0  0  0  0  0  0  0  0  0  0  0
   28.1523   11.3264   11.0049 H   0  0  0  0  0  0  0  0  0  0  0  0
  1  2  1  0
  2  3  1  0
  3  4  2  0
  4  5  1  0
  5  6  1  0
  6  7  2  0
  6  8  2  0
  6  9  1  0
  9 10  1  0
 10 11  2  0
 11 12  1  0
 12 13  2  0
 13 14  1  0
 14 15  2  0
 15 16  1  0
 16 17  1  0
 17 18  2  0
 17 19  1  0
 19 20  1  0
 20 21  1  0
 21 22  1  0
 22 23  1  0
 23 24  2  0
 23 25  1  0
 25 26  1  0
 26 27  2  0
 16 28  2  0
 28 29  1  0
  5 30  1  0
 30 31  2  0
 31  3  1  0
 29 10  1  0
 28 12  1  0
 26 20  1  0
  1 32  1  0
  1 33  1  0
  1 34  1  0
  2 35  1  0
  2 36  1  0
  4 37  1  0
 11 38  1  0
 13 39  1  0
 14 40  1  0
 15 41  1  0
 19 42  1  0
 20 43  1  1
 21 44  1  0
 21 45  1  0
 22 46  1  0
 22 47  1  0
 25 48  1  0
 30 49  1  0
M  END
>  <meeko>  (824) 
{"is_sidechain": [true], "free_energy": -11.37, "intermolecular_energy": 0.0, "internal_energy": -11.37, "cluster_size": 11, "cluster_id": 1, "rank_in_cluster": 1}

>  <_RMSD_MCS_to_ref>  (824) 
1.4717130985502729

$$$$
ligand
     RDKit          3D

 48 51  0  0  0  0  0  0  0  0999 V2000
   24.8710    9.6160    7.7820 C   0  0  0  0  0  0  0  0  0  0  0  0
   25.4240   10.9650    7.3490 C   0  0  0  0  0  0  0  0  0  0  0  0
   26.7790   11.2230    7.9080 C   0  0  0  0  0  0  0  0  0  0  0  0
   27.1290   11.9040    9.0570 C   0  0  0  0  0  0  0  0  0  0  0  0
   28.4910   11.8020    9.1050 N   0  0  0  0  0  0  0  0  0  0  0  0
   29.5070   12.6570   10.1490 S   0  0  0  0  0  6  0  0  0  0  0  0
   28.9460   12.4130   11.4640 O   0  0  0  0  0  0  0  0  0  0  0  0
   30.8400   12.2310    9.7690 O   0  0  0  0  0  0  0  0  0  0  0  0
   29.3040   14.2270    9.7550 O   0  0  0  0  0  0  0  0  0  0  0  0
   28.2000   14.6720    9.0520 C   0  0  0  0  0  0  0  0  0  0  0  0
   28.1640   14.3480    7.6870 C   0  0  0  0  0  0  0  0  0  0  0  0
   27.0980   14.7420    6.8680 C   0  0  0  0  0  0  0  0  0  0  0  0
   26.0250   15.4770    7.3870 C   0  0  0  0  0  0  0  0  0  0  0  0
   26.0430   15.8100    8.7490 C   0  0  0  0  0  0  0  0  0  0  0  0
   25.1370   16.5100    9.5050 N   0  0  0  0  0  0  0  0  0  0  0  0
   25.6800   16.5080   10.7140 C   0  0  0  0  0  0  0  0  0  0  0  0
   25.1010   17.1260   11.8980 C   0  0  0  0  0  0  0  0  0  0  0  0
   23.9160   17.4250   12.0300 O   0  0  0  0  0  0  0  0  0  0  0  0
   26.0200   17.3720   12.9020 N   0  0  0  0  0  0  0  0  0  0  0  0
   25.6810   18.1240   14.0960 C   0  0  1  0  0  0  0  0  0  0  0  0
   26.3130   17.5260   15.3490 C   0  0  0  0  0  0  0  0  0  0  0  0
   25.9420   18.3700   16.5590 C   0  0  0  0  0  0  0  0  0  0  0  0
   26.3420   19.8130   16.3630 C   0  0  0  0  0  0  0  0  0  0  0  0
   26.7080   20.5270   17.2900 O   0  0  0  0  0  0  0  0  0  0  0  0
   26.2470   20.3090   15.0860 N   0  0  0  0  0  0  0  0  0  0  0  0
   26.1670   19.5680   13.9330 C   0  0  0  0  0  0  0  0  0  0  0  0
   26.4590   20.0590   12.8430 O   0  0  0  0  0  0  0  0  0  0  0  0
   26.8800   15.8530   10.8020 O   0  0  0  0  0  0  0  0  0  0  0  0
   27.1140   15.4040    9.5340 C   0  0  0  0  0  0  0  0  0  0  0  0
   28.9270   11.1640    7.9890 C   0  0  0  0  0  0  0  0  0  0  0  0
   27.9080   10.7770    7.2500 N   0  0  0  0  0  0  0  0  0  0  0  0
   24.8497    9.5640    8.8806 H   0  0  0  0  0  0  0  0  0  0  0  0
   23.8507    9.4948    7.3893 H   0  0  0  0  0  0  0  0  0  0  0  0
   25.5127    8.8135    7.3893 H   0  0  0  0  0  0  0  0  0  0  0  0
   25.4837   10.9874    6.2509 H   0  0  0  0  0  0  0  0  0  0  0  0
   24.7478   11.7449    7.7292 H   0  0  0  0  0  0  0  0  0  0  0  0
   26.4638   12.4123    9.7705 H   0  0  0  0  0  0  0  0  0  0  0  0
   28.9923   13.7711    7.2499 H   0  0  0  0  0  0  0  0  0  0  0  0
   27.1039   14.4702    5.8021 H   0  0  0  0  0  0  0  0  0  0  0  0
   25.1888   15.7855    6.7423 H   0  0  0  0  0  0  0  0  0  0  0  0
   26.9783   17.0088   12.7986 H   0  0  0  0  0  0  0  0  0  0  0  0
   24.5884   18.0876   14.2180 H   0  0  0  0  0  0  0  0  0  0  0  0
   25.9438   16.4996   15.4913 H   0  0  0  0  0  0  0  0  0  0  0  0
   27.4070   17.5109   15.2352 H   0  0  0  0  0  0  0  0  0  0  0  0
   24.8541   18.3172   16.7131 H   0  0  0  0  0  0  0  0  0  0  0  0
   26.4780   17.9764   17.4352 H   0  0  0  0  0  0  0  0  0  0  0  0
   26.2346   21.3338   14.9835 H   0  0  0  0  0  0  0  0  0  0  0  0
   29.9842   10.9939    7.7370 H   0  0  0  0  0  0  0  0  0  0  0  0
  1  2  1  0
  2  3  1  0
  3  4  2  0
  4  5  1  0
  5  6  1  0
  6  7  2  0
  6  8  2  0
  6  9  1  0
  9 10  1  0
 10 11  2  0
 11 12  1  0
 12 13  2  0
 13 14  1  0
 14 15  1  0
 15 16  2  0
 16 17  1  0
 17 18  2  0
 17 19  1  0
 19 20  1  0
 20 21  1  0
 21 22  1  0
 22 23  1  0
 23 24  2  0
 23 25  1  0
 25 26  1  0
 26 27  2  0
 16 28  1  0
 28 29  1  0
  5 30  1  0
 30 31  2  0
 31  3  1  0
 29 10  1  0
 29 14  2  0
 26 20  1  0
  1 32  1  0
  1 33  1  0
  1 34  1  0
  2 35  1  0
  2 36  1  0
  4 37  1  0
 11 38  1  0
 12 39  1  0
 13 40  1  0
 19 41  1  0
 20 42  1  1
 21 43  1  0
 21 44  1  0
 22 45  1  0
 22 46  1  0
 25 47  1  0
 30 48  1  0
M  END
>  <meeko>  (825) 
{"is_sidechain": [true], "free_energy": -11.37, "intermolecular_energy": 0.0, "internal_energy": -11.37, "cluster_size": 14, "cluster_id": 1, "rank_in_cluster": 1}

>  <_RMSD_MCS_to_ref>  (825) 
1.0334527350370482

$$$$
ligand
     RDKit          3D

 59 63  0  0  0  0  0  0  0  0999 V2000
   24.8540    9.4020    7.6050 C   0  0  0  0  0  0  0  0  0  0  0  0
   25.5230   10.7550    7.4270 C   0  0  0  0  0  0  0  0  0  0  0  0
   25.3650   11.2830    6.0450 C   0  0  0  0  0  0  0  0  0  0  0  0
   25.9770   12.3710    5.4540 C   0  0  0  0  0  0  0  0  0  0  0  0
   25.4780   12.3870    4.1840 N   0  0  0  0  0  0  0  0  0  0  0  0
   25.7020   13.6150    3.0580 S   0  0  0  0  0  6  0  0  0  0  0  0
   27.0540   13.4390    2.5630 O   0  0  0  0  0  0  0  0  0  0  0  0
   24.5440   13.5810    2.1880 O   0  0  0  0  0  0  0  0  0  0  0  0
   25.6330   15.0930    4.0300 C   0  0  0  0  0  0  0  0  0  0  0  0
   25.9620   16.3210    3.4510 C   0  0  0  0  0  0  0  0  0  0  0  0
   25.9110   17.4750    4.2290 C   0  0  0  0  0  0  0  0  0  0  0  0
   25.5250   17.4010    5.5710 C   0  0  0  0  0  0  0  0  0  0  0  0
   25.1780   16.1730    6.1540 C   0  0  0  0  0  0  0  0  0  0  0  0
   24.7740   16.0900    7.5560 C   0  0  0  0  0  0  0  0  0  0  0  0
   23.6980   15.4470    8.1470 C   0  0  0  0  0  0  0  0  0  0  0  0
   23.7430   15.6810    9.5480 C   0  0  0  0  0  0  0  0  0  0  0  0
   22.9350   15.2940   10.6340 C   0  0  0  0  0  0  0  0  0  0  0  0
   23.2710   15.7160   11.9280 C   0  0  0  0  0  0  0  0  0  0  0  0
   24.4030   16.5090   12.1490 C   0  0  0  0  0  0  0  0  0  0  0  0
   24.7850   16.9720   13.5140 C   0  0  0  0  0  0  0  0  0  0  0  0
   24.7190   16.2120   14.4730 O   0  0  0  0  0  0  0  0  0  0  0  0
   25.1700   18.2900   13.6360 N   0  0  0  0  0  0  0  0  0  0  0  0
   25.4110   18.8830   14.9440 C   0  0  1  0  0  0  0  0  0  0  0  0
   26.5370   18.1830   15.6980 C   0  0  0  0  0  0  0  0  0  0  0  0
   26.7590   18.8740   17.0350 C   0  0  0  0  0  0  0  0  0  0  0  0
   27.0370   20.3470   16.8500 C   0  0  0  0  0  0  0  0  0  0  0  0
   27.7890   20.9730   17.5920 O   0  0  0  0  0  0  0  0  0  0  0  0
   26.3800   20.9740   15.8230 N   0  0  0  0  0  0  0  0  0  0  0  0
   25.7830   20.3570   14.7510 C   0  0  0  0  0  0  0  0  0  0  0  0
   25.5540   20.9700   13.7090 O   0  0  0  0  0  0  0  0  0  0  0  0
   25.2090   16.9160   11.0750 C   0  0  0  0  0  0  0  0  0  0  0  0
   24.8550   16.4810    9.7900 C   0  0  0  0  0  0  0  0  0  0  0  0
   25.4550   16.7200    8.5750 N   0  0  0  0  0  0  0  0  0  0  0  0
   25.2320   15.0140    5.3690 C   0  0  0  0  0  0  0  0  0  0  0  0
   24.5820   11.3770    4.0440 C   0  0  0  0  0  0  0  0  0  0  0  0
   24.4950   10.6790    5.1570 N   0  0  0  0  0  0  0  0  0  0  0  0
   24.7464    9.1845    8.6779 H   0  0  0  0  0  0  0  0  0  0  0  0
   23.8606    9.4192    7.1330 H   0  0  0  0  0  0  0  0  0  0  0  0
   25.4708    8.6230    7.1330 H   0  0  0  0  0  0  0  0  0  0  0  0
   25.0722   11.4685    8.1325 H   0  0  0  0  0  0  0  0  0  0  0  0
   26.5986   10.6275    7.6187 H   0  0  0  0  0  0  0  0  0  0  0  0
   26.7012   13.0659    5.9042 H   0  0  0  0  0  0  0  0  0  0  0  0
   26.2579   16.3759    2.3930 H   0  0  0  0  0  0  0  0  0  0  0  0
   26.1750   18.4470    3.7868 H   0  0  0  0  0  0  0  0  0  0  0  0
   25.4930   18.3180    6.1777 H   0  0  0  0  0  0  0  0  0  0  0  0
   22.9361   14.8543    7.6196 H   0  0  0  0  0  0  0  0  0  0  0  0
   22.0474   14.6657   10.4686 H   0  0  0  0  0  0  0  0  0  0  0  0
   22.6386   15.4209   12.7783 H   0  0  0  0  0  0  0  0  0  0  0  0
   25.2890   18.8641   12.7891 H   0  0  0  0  0  0  0  0  0  0  0  0
   24.4930   18.7753   15.5404 H   0  0  0  0  0  0  0  0  0  0  0  0
   26.2646   17.1312   15.8697 H   0  0  0  0  0  0  0  0  0  0  0  0
   27.4611   18.2304   15.1032 H   0  0  0  0  0  0  0  0  0  0  0  0
   25.8581   18.7541   17.6546 H   0  0  0  0  0  0  0  0  0  0  0  0
   27.6305   18.4141   17.5239 H   0  0  0  0  0  0  0  0  0  0  0  0
   26.3295   22.0021   15.8586 H   0  0  0  0  0  0  0  0  0  0  0  0
   26.0896   17.5553   11.2359 H   0  0  0  0  0  0  0  0  0  0  0  0
   26.3006   17.2935    8.4445 H   0  0  0  0  0  0  0  0  0  0  0  0
   24.9592   14.0415    5.8048 H   0  0  0  0  0  0  0  0  0  0  0  0
   24.0085   11.1705    3.1283 H   0  0  0  0  0  0  0  0  0  0  0  0
  1  2  1  0
  2  3  1  0
  3  4  2  0
  4  5  1  0
  5  6  1  0
  6  7  2  0
  6  8  2  0
  6  9  1  0
  9 10  2  0
 10 11  1  0
 11 12  2  0
 12 13  1  0
 13 14  1  0
 14 15  2  0
 15 16  1  0
 16 17  2  0
 17 18  1  0
 18 19  2  0
 19 20  1  0
 20 21  2  0
 20 22  1  0
 22 23  1  0
 23 24  1  0
 24 25  1  0
 25 26  1  0
 26 27  2  0
 26 28  1  0
 28 29  1  0
 29 30  2  0
 19 31  1  0
 31 32  2  0
 32 33  1  0
 13 34  2  0
  5 35  1  0
 35 36  2  0
 36  3  1  0
 34  9  1  0
 33 14  1  0
 32 16  1  0
 29 23  1  0
  1 37  1  0
  1 38  1  0
  1 39  1  0
  2 40  1  0
  2 41  1  0
  4 42  1  0
 10 43  1  0
 11 44  1  0
 12 45  1  0
 15 46  1  0
 17 47  1  0
 18 48  1  0
 22 49  1  0
 23 50  1  1
 24 51  1  0
 24 52  1  0
 25 53  1  0
 25 54  1  0
 28 55  1  0
 31 56  1  0
 33 57  1  0
 34 58  1  0
 35 59  1  0
M  END
>  <meeko>  (826) 
{"is_sidechain": [true], "free_energy": -11.36, "intermolecular_energy": 0.0, "internal_energy": -11.36, "cluster_size": 18, "cluster_id": 1, "rank_in_cluster": 1}

>  <_RMSD_MCS_to_ref>  (826) 
0.7684369416766296

$$$$
ligand
     RDKit          3D

 60 65  0  0  0  0  0  0  0  0999 V2000
   24.8540    9.4020    7.6050 C   0  0  0  0  0  0  0  0  0  0  0  0
   25.5230   10.7550    7.4270 C   0  0  0  0  0  0  0  0  0  0  0  0
   25.2630   11.3520    6.0880 C   0  0  0  0  0  0  0  0  0  0  0  0
   24.3030   12.2790    5.7280 C   0  0  0  0  0  0  0  0  0  0  0  0
   24.4820   12.4430    4.3830 N   0  0  0  0  0  0  0  0  0  0  0  0
   23.6410   13.5060    3.3910 S   0  0  0  0  0  6  0  0  0  0  0  0
   22.2410   13.2240    3.6670 O   0  0  0  0  0  0  0  0  0  0  0  0
   24.2200   13.3310    2.0690 O   0  0  0  0  0  0  0  0  0  0  0  0
   24.0560   15.1230    4.0080 C   0  0  0  0  0  0  0  0  0  0  0  0
   24.8600   15.1600    5.0930 N   0  0  0  0  0  0  0  0  0  0  0  0
   25.1720   16.3710    5.6210 C   0  0  0  0  0  0  0  0  0  0  0  0
   25.9600   16.4900    6.7730 N   0  0  0  0  0  0  0  0  0  0  0  0
   25.6340   16.4850    8.1410 C   0  0  0  0  0  0  0  0  0  0  0  0
   24.5370   15.7750    8.6690 C   0  0  0  0  0  0  0  0  0  0  0  0
   24.1930   15.8250   10.0290 C   0  0  0  0  0  0  0  0  0  0  0  0
   24.9610   16.6090   10.8640 C   0  0  0  0  0  0  0  0  0  0  0  0
   26.0440   17.3120   10.3490 C   0  0  0  0  0  0  0  0  0  0  0  0
   26.4020   17.2710    9.0130 C   0  0  0  0  0  0  0  0  0  0  0  0
   26.6760   18.0440   11.4490 C   0  0  0  0  0  0  0  0  0  0  0  0
   27.6940   18.7030   11.3560 O   0  0  0  0  0  0  0  0  0  0  0  0
   25.9170   17.8000   12.5820 N   0  0  0  0  0  0  0  0  0  0  0  0
   26.3410   18.2160   13.9150 C   0  0  2  0  0  0  0  0  0  0  0  0
   25.8830   17.2070   14.9700 C   0  0  0  0  0  0  0  0  0  0  0  0
   26.4450   17.5940   16.3280 C   0  0  0  0  0  0  0  0  0  0  0  0
   26.0490   19.0010   16.7020 C   0  0  0  0  0  0  0  0  0  0  0  0
   25.8720   19.3480   17.8660 O   0  0  0  0  0  0  0  0  0  0  0  0
   25.9290   19.8990   15.6720 N   0  0  0  0  0  0  0  0  0  0  0  0
   25.8910   19.6280   14.3240 C   0  0  0  0  0  0  0  0  0  0  0  0
   25.5480   20.5030   13.5320 O   0  0  0  0  0  0  0  0  0  0  0  0
   24.8250   16.8660   12.3280 C   0  0  0  0  0  0  0  0  0  0  0  0
   24.6320   17.5140    4.9910 C   0  0  0  0  0  0  0  0  0  0  0  0
   24.6860   18.9250    5.1950 C   0  0  0  0  0  0  0  0  0  0  0  0
   23.9240   19.5240    4.2130 C   0  0  0  0  0  0  0  0  0  0  0  0
   23.4080   18.5320    3.4190 N   0  0  0  0  0  0  0  0  0  0  0  0
   23.8280   17.3130    3.8780 C   0  0  0  0  0  0  0  0  0  0  0  0
   23.4920   16.1400    3.3250 N   0  0  0  0  0  0  0  0  0  0  0  0
   25.5210   11.6680    3.9760 C   0  0  0  0  0  0  0  0  0  0  0  0
   26.0180   10.9860    4.9890 N   0  0  0  0  0  0  0  0  0  0  0  0
   24.7464    9.1845    8.6779 H   0  0  0  0  0  0  0  0  0  0  0  0
   23.8606    9.4192    7.1330 H   0  0  0  0  0  0  0  0  0  0  0  0
   25.4708    8.6230    7.1330 H   0  0  0  0  0  0  0  0  0  0  0  0
   25.1416   11.4405    8.1982 H   0  0  0  0  0  0  0  0  0  0  0  0
   26.6087   10.6038    7.5186 H   0  0  0  0  0  0  0  0  0  0  0  0
   23.5636   12.7722    6.3761 H   0  0  0  0  0  0  0  0  0  0  0  0
   26.9660   16.6021    6.5826 H   0  0  0  0  0  0  0  0  0  0  0  0
   23.9282   15.1592    7.9906 H   0  0  0  0  0  0  0  0  0  0  0  0
   23.3358   15.2554   10.4174 H   0  0  0  0  0  0  0  0  0  0  0  0
   27.2675   17.8407    8.6438 H   0  0  0  0  0  0  0  0  0  0  0  0
   27.4393   18.2485   13.8625 H   0  0  0  0  0  0  0  0  0  0  0  0
   24.7840   17.2011   15.0174 H   0  0  0  0  0  0  0  0  0  0  0  0
   26.2467   16.2052   14.6976 H   0  0  0  0  0  0  0  0  0  0  0  0
   26.0584   16.8986   17.0876 H   0  0  0  0  0  0  0  0  0  0  0  0
   27.5427   17.5429   16.2779 H   0  0  0  0  0  0  0  0  0  0  0  0
   25.8593   20.8913   15.9390 H   0  0  0  0  0  0  0  0  0  0  0  0
   24.9496   15.9399   12.9084 H   0  0  0  0  0  0  0  0  0  0  0  0
   23.8371   17.2538   12.6174 H   0  0  0  0  0  0  0  0  0  0  0  0
   25.2373   19.4433    5.9934 H   0  0  0  0  0  0  0  0  0  0  0  0
   23.7597   20.6046    4.0891 H   0  0  0  0  0  0  0  0  0  0  0  0
   22.7980   18.6814    2.6026 H   0  0  0  0  0  0  0  0  0  0  0  0
   25.8961   11.6166    2.9432 H   0  0  0  0  0  0  0  0  0  0  0  0
  1  2  1  0
  2  3  1  0
  3  4  2  0
  4  5  1  0
  5  6  1  0
  6  7  2  0
  6  8  2  0
  6  9  1  0
  9 10  2  0
 10 11  1  0
 11 12  1  0
 12 13  1  0
 13 14  2  0
 14 15  1  0
 15 16  2  0
 16 17  1  0
 17 18  2  0
 17 19  1  0
 19 20  2  0
 19 21  1  0
 21 22  1  0
 22 23  1  0
 23 24  1  0
 24 25  1  0
 25 26  2  0
 25 27  1  0
 27 28  1  0
 28 29  2  0
 21 30  1  0
 11 31  2  0
 31 32  1  0
 32 33  2  0
 33 34  1  0
 34 35  1  0
 35 36  2  0
  5 37  1  0
 37 38  2  0
 38  3  1  0
 36  9  1  0
 18 13  1  0
 28 22  1  0
 35 31  1  0
 30 16  1  0
  1 39  1  0
  1 40  1  0
  1 41  1  0
  2 42  1  0
  2 43  1  0
  4 44  1  0
 12 45  1  0
 14 46  1  0
 15 47  1  0
 18 48  1  0
 22 49  1  6
 23 50  1  0
 23 51  1  0
 24 52  1  0
 24 53  1  0
 27 54  1  0
 30 55  1  0
 30 56  1  0
 32 57  1  0
 33 58  1  0
 34 59  1  0
 37 60  1  0
M  END
>  <meeko>  (827) 
{"is_sidechain": [true], "free_energy": -11.36, "intermolecular_energy": 0.0, "internal_energy": -11.36, "cluster_size": 13, "cluster_id": 1, "rank_in_cluster": 1}

>  <_RMSD_MCS_to_ref>  (827) 
1.2587939112941042

$$$$
ligand
     RDKit          3D

 55 59  0  0  0  0  0  0  0  0999 V2000
   24.8710    9.6160    7.7820 C   0  0  0  0  0  0  0  0  0  0  0  0
   25.4240   10.9650    7.3490 C   0  0  0  0  0  0  0  0  0  0  0  0
   26.8030   11.2110    7.8600 C   0  0  0  0  0  0  0  0  0  0  0  0
   27.1960   11.7980    9.0460 C   0  0  0  0  0  0  0  0  0  0  0  0
   28.5610   11.7790    8.9990 N   0  0  0  0  0  0  0  0  0  0  0  0
   29.5820   12.6750    9.9980 S   0  0  0  0  0  6  0  0  0  0  0  0
   30.8090   12.8630    9.2510 O   0  0  0  0  0  0  0  0  0  0  0  0
   29.5360   12.0070   11.2820 O   0  0  0  0  0  0  0  0  0  0  0  0
   28.7620   14.2220   10.1170 C   0  0  0  0  0  0  0  0  0  0  0  0
   29.4800   15.3910    9.9660 C   0  0  0  0  0  0  0  0  0  0  0  0
   28.9240   16.6110   10.1290 N   0  0  0  0  0  0  0  0  0  0  0  0
   27.6080   16.6530   10.4590 C   0  0  0  0  0  0  0  0  0  0  0  0
   26.7930   15.5310   10.6250 C   0  0  0  0  0  0  0  0  0  0  0  0
   25.3870   15.6500   11.0230 C   0  0  0  0  0  0  0  0  0  0  0  0
   24.3600   15.0880   10.2360 C   0  0  0  0  0  0  0  0  0  0  0  0
   23.0000   15.2190   10.5820 C   0  0  0  0  0  0  0  0  0  0  0  0
   22.6250   15.9220   11.7240 C   0  0  0  0  0  0  0  0  0  0  0  0
   23.6350   16.4660   12.4920 C   0  0  0  0  0  0  0  0  0  0  0  0
   24.9890   16.3390   12.1690 C   0  0  0  0  0  0  0  0  0  0  0  0
   25.8090   17.0670   13.1890 C   0  0  0  0  0  0  0  0  0  0  0  0
   24.8100   17.5350   14.1390 N   0  0  0  0  0  0  0  0  0  0  0  0
   25.1090   18.4770   15.2130 C   0  0  1  0  0  0  0  0  0  0  0  0
   26.0330   17.8710   16.2650 C   0  0  0  0  0  0  0  0  0  0  0  0
   26.2890   18.8770   17.3740 C   0  0  0  0  0  0  0  0  0  0  0  0
   26.8490   20.1600   16.8110 C   0  0  0  0  0  0  0  0  0  0  0  0
   27.7400   20.7950   17.3660 O   0  0  0  0  0  0  0  0  0  0  0  0
   26.2980   20.5970   15.6330 N   0  0  0  0  0  0  0  0  0  0  0  0
   25.7300   19.7810   14.6830 C   0  0  0  0  0  0  0  0  0  0  0  0
   25.7470   20.1110   13.4980 O   0  0  0  0  0  0  0  0  0  0  0  0
   23.5200   17.2630   13.7190 C   0  0  0  0  0  0  0  0  0  0  0  0
   22.4750   17.5970   14.2410 O   0  0  0  0  0  0  0  0  0  0  0  0
   27.4000   14.2870   10.4180 C   0  0  0  0  0  0  0  0  0  0  0  0
   28.9540   11.2220    7.8240 C   0  0  0  0  0  0  0  0  0  0  0  0
   27.9090   10.8820    7.1000 N   0  0  0  0  0  0  0  0  0  0  0  0
   24.8497    9.5640    8.8806 H   0  0  0  0  0  0  0  0  0  0  0  0
   23.8507    9.4948    7.3893 H   0  0  0  0  0  0  0  0  0  0  0  0
   25.5127    8.8135    7.3893 H   0  0  0  0  0  0  0  0  0  0  0  0
   25.4441   11.0009    6.2498 H   0  0  0  0  0  0  0  0  0  0  0  0
   24.7697   11.7432    7.7689 H   0  0  0  0  0  0  0  0  0  0  0  0
   26.5546   12.1922    9.8480 H   0  0  0  0  0  0  0  0  0  0  0  0
   30.5461   15.3266    9.7028 H   0  0  0  0  0  0  0  0  0  0  0  0
   27.1503   17.6423   10.6064 H   0  0  0  0  0  0  0  0  0  0  0  0
   24.6284   14.5314    9.3259 H   0  0  0  0  0  0  0  0  0  0  0  0
   22.2285   14.7622    9.9447 H   0  0  0  0  0  0  0  0  0  0  0  0
   21.5674   16.0391   12.0028 H   0  0  0  0  0  0  0  0  0  0  0  0
   26.5289   16.3908   13.6733 H   0  0  0  0  0  0  0  0  0  0  0  0
   26.4131   17.8798   12.7596 H   0  0  0  0  0  0  0  0  0  0  0  0
   24.1423   18.7114   15.6827 H   0  0  0  0  0  0  0  0  0  0  0  0
   25.5613   16.9727   16.6899 H   0  0  0  0  0  0  0  0  0  0  0  0
   26.9898   17.6027   15.7933 H   0  0  0  0  0  0  0  0  0  0  0  0
   25.3426   19.0925   17.8916 H   0  0  0  0  0  0  0  0  0  0  0  0
   27.0198   18.4504   18.0769 H   0  0  0  0  0  0  0  0  0  0  0  0
   26.3107   21.6099   15.4466 H   0  0  0  0  0  0  0  0  0  0  0  0
   26.8064   13.3639   10.4921 H   0  0  0  0  0  0  0  0  0  0  0  0
   30.0009   11.0754    7.5198 H   0  0  0  0  0  0  0  0  0  0  0  0
  1  2  1  0
  2  3  1  0
  3  4  2  0
  4  5  1  0
  5  6  1  0
  6  7  2  0
  6  8  2  0
  6  9  1  0
  9 10  2  0
 10 11  1  0
 11 12  2  0
 12 13  1  0
 13 14  1  0
 14 15  2  0
 15 16  1  0
 16 17  2  0
 17 18  1  0
 18 19  2  0
 19 20  1  0
 20 21  1  0
 21 22  1  0
 22 23  1  0
 23 24  1  0
 24 25  1  0
 25 26  2  0
 25 27  1  0
 27 28  1  0
 28 29  2  0
 21 30  1  0
 30 31  2  0
 13 32  2  0
  5 33  1  0
 33 34  2  0
 34  3  1  0
 32  9  1  0
 19 14  1  0
 28 22  1  0
 30 18  1  0
  1 35  1  0
  1 36  1  0
  1 37  1  0
  2 38  1  0
  2 39  1  0
  4 40  1  0
 10 41  1  0
 12 42  1  0
 15 43  1  0
 16 44  1  0
 17 45  1  0
 20 46  1  0
 20 47  1  0
 22 48  1  1
 23 49  1  0
 23 50  1  0
 24 51  1  0
 24 52  1  0
 27 53  1  0
 32 54  1  0
 33 55  1  0
M  END
>  <meeko>  (828) 
{"is_sidechain": [true], "free_energy": -11.36, "intermolecular_energy": 0.0, "internal_energy": -11.36, "cluster_size": 5, "cluster_id": 1, "rank_in_cluster": 1}

>  <_RMSD_MCS_to_ref>  (828) 
1.1230609956720963

$$$$
ligand
     RDKit          3D

 64 69  0  0  0  0  0  0  0  0999 V2000
   24.8540    9.4020    7.6050 C   0  0  0  0  0  0  0  0  0  0  0  0
   25.5230   10.7550    7.4270 C   0  0  0  0  0  0  0  0  0  0  0  0
   25.0310   11.4710    6.2190 C   0  0  0  0  0  0  0  0  0  0  0  0
   25.2920   12.7640    5.8080 C   0  0  0  0  0  0  0  0  0  0  0  0
   24.6110   12.8850    4.6300 N   0  0  0  0  0  0  0  0  0  0  0  0
   24.3760   14.3070    3.7660 S   0  0  0  0  0  6  0  0  0  0  0  0
   22.9380   14.4860    3.6980 O   0  0  0  0  0  0  0  0  0  0  0  0
   25.2040   14.1990    2.5810 O   0  0  0  0  0  0  0  0  0  0  0  0
   25.0630   15.5550    4.8190 C   0  0  0  0  0  0  0  0  0  0  0  0
   25.9470   16.4990    4.2960 C   0  0  0  0  0  0  0  0  0  0  0  0
   26.4900   17.4800    5.1330 C   0  0  0  0  0  0  0  0  0  0  0  0
   26.1230   17.5160    6.4900 C   0  0  0  0  0  0  0  0  0  0  0  0
   25.2480   16.5490    7.0330 C   0  0  0  0  0  0  0  0  0  0  0  0
   24.8630   16.5410    8.4570 C   0  0  0  0  0  0  0  0  0  0  0  0
   23.6890   15.8610    8.8760 C   0  0  0  0  0  0  0  0  0  0  0  0
   23.3060   15.8290   10.2210 C   0  0  0  0  0  0  0  0  0  0  0  0
   24.1160   16.4820   11.1260 C   0  0  0  0  0  0  0  0  0  0  0  0
   25.2730   17.1600   10.7490 C   0  0  0  0  0  0  0  0  0  0  0  0
   25.6580   17.1960    9.4180 C   0  0  0  0  0  0  0  0  0  0  0  0
   25.9140   17.7830   11.9430 C   0  0  0  0  0  0  0  0  0  0  0  0
   25.0740   17.3110   13.0370 N   0  0  0  0  0  0  0  0  0  0  0  0
   25.1460   17.8390   14.3940 C   0  0  1  0  0  0  0  0  0  0  0  0
   26.3060   17.2470   15.1880 C   0  0  0  0  0  0  0  0  0  0  0  0
   26.2620   17.7730   16.6150 C   0  0  0  0  0  0  0  0  0  0  0  0
   26.2730   19.2840   16.6390 C   0  0  0  0  0  0  0  0  0  0  0  0
   26.8530   19.9220   17.5120 O   0  0  0  0  0  0  0  0  0  0  0  0
   25.5810   19.9190   15.6390 N   0  0  0  0  0  0  0  0  0  0  0  0
   25.2550   19.3740   14.4180 C   0  0  0  0  0  0  0  0  0  0  0  0
   25.0820   20.1010   13.4430 O   0  0  0  0  0  0  0  0  0  0  0  0
   23.9630   16.6150   12.5780 C   0  0  0  0  0  0  0  0  0  0  0  0
   23.0300   16.1830   13.2280 O   0  0  0  0  0  0  0  0  0  0  0  0
   24.7260   15.5650    6.1760 C   0  0  0  0  0  0  0  0  0  0  0  0
   26.6180   18.4650    7.3530 O   0  0  0  0  0  0  0  0  0  0  0  0
   27.1850   19.6220    6.7360 C   0  0  0  0  0  0  0  0  0  0  0  0
   28.1770   19.2400    5.6540 C   0  0  0  0  0  0  0  0  0  0  0  0
   27.4350   18.5000    4.5540 C   0  0  0  0  0  0  0  0  0  0  0  0
   23.9390   11.7310    4.3830 C   0  0  0  0  0  0  0  0  0  0  0  0
   24.1810   10.8460    5.3270 N   0  0  0  0  0  0  0  0  0  0  0  0
   24.7464    9.1845    8.6779 H   0  0  0  0  0  0  0  0  0  0  0  0
   23.8606    9.4192    7.1330 H   0  0  0  0  0  0  0  0  0  0  0  0
   25.4708    8.6230    7.1330 H   0  0  0  0  0  0  0  0  0  0  0  0
   25.3154   11.3721    8.3136 H   0  0  0  0  0  0  0  0  0  0  0  0
   26.6024   10.5840    7.3018 H   0  0  0  0  0  0  0  0  0  0  0  0
   25.9075   13.5226    6.3137 H   0  0  0  0  0  0  0  0  0  0  0  0
   26.2161   16.4722    3.2298 H   0  0  0  0  0  0  0  0  0  0  0  0
   23.0675   15.3485    8.1270 H   0  0  0  0  0  0  0  0  0  0  0  0
   22.3950   15.3039   10.5439 H   0  0  0  0  0  0  0  0  0  0  0  0
   26.5718   17.7287    9.1162 H   0  0  0  0  0  0  0  0  0  0  0  0
   26.9518   17.4382   12.0619 H   0  0  0  0  0  0  0  0  0  0  0  0
   25.9790   18.8794   11.8827 H   0  0  0  0  0  0  0  0  0  0  0  0
   24.2009   17.5404   14.8710 H   0  0  0  0  0  0  0  0  0  0  0  0
   26.2218   16.1503   15.1983 H   0  0  0  0  0  0  0  0  0  0  0  0
   27.2580   17.5363   14.7189 H   0  0  0  0  0  0  0  0  0  0  0  0
   25.3441   17.4127   17.1024 H   0  0  0  0  0  0  0  0  0  0  0  0
   27.1521   17.4088   17.1490 H   0  0  0  0  0  0  0  0  0  0  0  0
   25.2793   20.8875   15.8175 H   0  0  0  0  0  0  0  0  0  0  0  0
   24.0474   14.7971    6.5757 H   0  0  0  0  0  0  0  0  0  0  0  0
   26.3783   20.2204    6.2874 H   0  0  0  0  0  0  0  0  0  0  0  0
   27.7169   20.2003    7.5059 H   0  0  0  0  0  0  0  0  0  0  0  0
   28.6425   20.1472    5.2413 H   0  0  0  0  0  0  0  0  0  0  0  0
   28.9628   18.5960    6.0756 H   0  0  0  0  0  0  0  0  0  0  0  0
   26.8612   19.2241    3.9570 H   0  0  0  0  0  0  0  0  0  0  0  0
   28.1707   17.9787    3.9240 H   0  0  0  0  0  0  0  0  0  0  0  0
   23.2843   11.5598    3.5158 H   0  0  0  0  0  0  0  0  0  0  0  0
  1  2  1  0
  2  3  1  0
  3  4  2  0
  4  5  1  0
  5  6  1  0
  6  7  2  0
  6  8  2  0
  6  9  1  0
  9 10  2  0
 10 11  1  0
 11 12  2  0
 12 13  1  0
 13 14  1  0
 14 15  2  0
 15 16  1  0
 16 17  2  0
 17 18  1  0
 18 19  2  0
 18 20  1  0
 20 21  1  0
 21 22  1  0
 22 23  1  0
 23 24  1  0
 24 25  1  0
 25 26  2  0
 25 27  1  0
 27 28  1  0
 28 29  2  0
 21 30  1  0
 30 31  2  0
 13 32  2  0
 12 33  1  0
 33 34  1  0
 34 35  1  0
 35 36  1  0
  5 37  1  0
 37 38  2  0
 38  3  1  0
 32  9  1  0
 36 11  1  0
 19 14  1  0
 28 22  1  0
 30 17  1  0
  1 39  1  0
  1 40  1  0
  1 41  1  0
  2 42  1  0
  2 43  1  0
  4 44  1  0
 10 45  1  0
 15 46  1  0
 16 47  1  0
 19 48  1  0
 20 49  1  0
 20 50  1  0
 22 51  1  1
 23 52  1  0
 23 53  1  0
 24 54  1  0
 24 55  1  0
 27 56  1  0
 32 57  1  0
 34 58  1  0
 34 59  1  0
 35 60  1  0
 35 61  1  0
 36 62  1  0
 36 63  1  0
 37 64  1  0
M  END
>  <meeko>  (829) 
{"is_sidechain": [true], "free_energy": -11.35, "intermolecular_energy": 0.0, "internal_energy": -11.35, "cluster_size": 20, "cluster_id": 1, "rank_in_cluster": 1}

>  <_RMSD_MCS_to_ref>  (829) 
0.7666342022111978

$$$$
ligand
     RDKit          3D

 60 65  0  0  0  0  0  0  0  0999 V2000
   24.8710    9.6160    7.7820 C   0  0  0  0  0  0  0  0  0  0  0  0
   25.4240   10.9650    7.3490 C   0  0  0  0  0  0  0  0  0  0  0  0
   26.6480   10.8240    6.5140 C   0  0  0  0  0  0  0  0  0  0  0  0
   26.9630   11.4570    5.3280 C   0  0  0  0  0  0  0  0  0  0  0  0
   28.2050   10.9810    5.0150 N   0  0  0  0  0  0  0  0  0  0  0  0
   29.2410   11.6180    3.8420 S   0  0  0  0  0  6  0  0  0  0  0  0
   30.5420   11.0660    4.1700 O   0  0  0  0  0  0  0  0  0  0  0  0
   28.6020   11.3250    2.5720 O   0  0  0  0  0  0  0  0  0  0  0  0
   29.3100   13.2400    4.0510 O   0  0  0  0  0  0  0  0  0  0  0  0
   28.6600   13.7840    5.1280 C   0  0  0  0  0  0  0  0  0  0  0  0
   27.4700   14.4830    4.9960 C   0  0  0  0  0  0  0  0  0  0  0  0
   26.7750   15.0040    6.0300 N   0  0  0  0  0  0  0  0  0  0  0  0
   27.2420   14.8630    7.3040 C   0  0  0  0  0  0  0  0  0  0  0  0
   26.4290   15.4230    8.3880 C   0  0  0  0  0  0  0  0  0  0  0  0
   25.0110   15.3660    8.3550 C   0  0  0  0  0  0  0  0  0  0  0  0
   24.2300   15.8980    9.3870 C   0  0  0  0  0  0  0  0  0  0  0  0
   24.8930   16.4920   10.4410 C   0  0  0  0  0  0  0  0  0  0  0  0
   26.2790   16.5880   10.4980 C   0  0  0  0  0  0  0  0  0  0  0  0
   27.0570   16.0620    9.4780 C   0  0  0  0  0  0  0  0  0  0  0  0
   26.6890   17.3230   11.7290 C   0  0  0  0  0  0  0  0  0  0  0  0
   25.4220   17.5180   12.4210 N   0  0  0  0  0  0  0  0  0  0  0  0
   25.3220   18.3890   13.5870 C   0  0  2  0  0  0  0  0  0  0  0  0
   25.7690   19.8260   13.3200 C   0  0  0  0  0  0  0  0  0  0  0  0
   25.5670   20.6580   14.5770 C   0  0  0  0  0  0  0  0  0  0  0  0
   26.3060   20.0640   15.7530 C   0  0  0  0  0  0  0  0  0  0  0  0
   26.6420   20.7380   16.7230 O   0  0  0  0  0  0  0  0  0  0  0  0
   26.5170   18.7080   15.7270 N   0  0  0  0  0  0  0  0  0  0  0  0
   26.0820   17.8020   14.7870 C   0  0  0  0  0  0  0  0  0  0  0  0
   26.2180   16.5950   14.9810 O   0  0  0  0  0  0  0  0  0  0  0  0
   24.3420   17.1310   11.6410 C   0  0  0  0  0  0  0  0  0  0  0  0
   23.1560   17.2810   11.8590 O   0  0  0  0  0  0  0  0  0  0  0  0
   28.4720   14.2170    7.4860 C   0  0  0  0  0  0  0  0  0  0  0  0
   29.2180   13.9930    8.6250 N   0  0  0  0  0  0  0  0  0  0  0  0
   30.3600   13.3030    8.3190 C   0  0  0  0  0  0  0  0  0  0  0  0
   30.3760   13.0940    6.9610 C   0  0  0  0  0  0  0  0  0  0  0  0
   29.1960   13.6770    6.4190 C   0  0  0  0  0  0  0  0  0  0  0  0
   28.6160   10.1330    5.9930 C   0  0  0  0  0  0  0  0  0  0  0  0
   27.6830   10.0000    6.9120 N   0  0  0  0  0  0  0  0  0  0  0  0
   24.8497    9.5640    8.8806 H   0  0  0  0  0  0  0  0  0  0  0  0
   23.8507    9.4948    7.3893 H   0  0  0  0  0  0  0  0  0  0  0  0
   25.5127    8.8135    7.3893 H   0  0  0  0  0  0  0  0  0  0  0  0
   24.6553   11.4933    6.7659 H   0  0  0  0  0  0  0  0  0  0  0  0
   25.6936   11.5281    8.2546 H   0  0  0  0  0  0  0  0  0  0  0  0
   26.3538   12.1789    4.7644 H   0  0  0  0  0  0  0  0  0  0  0  0
   27.0655   14.6223    3.9826 H   0  0  0  0  0  0  0  0  0  0  0  0
   24.5135   14.8915    7.4963 H   0  0  0  0  0  0  0  0  0  0  0  0
   23.1316   15.8447    9.3590 H   0  0  0  0  0  0  0  0  0  0  0  0
   28.1533   16.1421    9.5182 H   0  0  0  0  0  0  0  0  0  0  0  0
   27.3845   16.7243   12.3356 H   0  0  0  0  0  0  0  0  0  0  0  0
   27.2219   18.2623   11.5200 H   0  0  0  0  0  0  0  0  0  0  0  0
   24.2501   18.4376   13.8291 H   0  0  0  0  0  0  0  0  0  0  0  0
   26.8331   19.8339   13.0414 H   0  0  0  0  0  0  0  0  0  0  0  0
   25.1734   20.2501   12.4982 H   0  0  0  0  0  0  0  0  0  0  0  0
   25.9408   21.6767   14.3964 H   0  0  0  0  0  0  0  0  0  0  0  0
   24.4929   20.6739   14.8140 H   0  0  0  0  0  0  0  0  0  0  0  0
   27.0683   18.3213   16.5063 H   0  0  0  0  0  0  0  0  0  0  0  0
   28.9531   14.3013    9.5714 H   0  0  0  0  0  0  0  0  0  0  0  0
   31.1288   12.9741    9.0337 H   0  0  0  0  0  0  0  0  0  0  0  0
   31.1600   12.5702    6.3944 H   0  0  0  0  0  0  0  0  0  0  0  0
   29.5928    9.6276    6.0142 H   0  0  0  0  0  0  0  0  0  0  0  0
  1  2  1  0
  2  3  1  0
  3  4  2  0
  4  5  1  0
  5  6  1  0
  6  7  2  0
  6  8  2  0
  6  9  1  0
  9 10  1  0
 10 11  2  0
 11 12  1  0
 12 13  2  0
 13 14  1  0
 14 15  2  0
 15 16  1  0
 16 17  2  0
 17 18  1  0
 18 19  2  0
 18 20  1  0
 20 21  1  0
 21 22  1  0
 22 23  1  0
 23 24  1  0
 24 25  1  0
 25 26  2  0
 25 27  1  0
 27 28  1  0
 28 29  2  0
 21 30  1  0
 30 31  2  0
 13 32  1  0
 32 33  1  0
 33 34  1  0
 34 35  2  0
 35 36  1  0
  5 37  1  0
 37 38  2  0
 38  3  1  0
 36 10  1  0
 19 14  1  0
 28 22  1  0
 36 32  2  0
 30 17  1  0
  1 39  1  0
  1 40  1  0
  1 41  1  0
  2 42  1  0
  2 43  1  0
  4 44  1  0
 11 45  1  0
 15 46  1  0
 16 47  1  0
 19 48  1  0
 20 49  1  0
 20 50  1  0
 22 51  1  1
 23 52  1  0
 23 53  1  0
 24 54  1  0
 24 55  1  0
 27 56  1  0
 33 57  1  0
 34 58  1  0
 35 59  1  0
 37 60  1  0
M  END
>  <meeko>  (830) 
{"is_sidechain": [true], "free_energy": -11.35, "intermolecular_energy": 0.0, "internal_energy": -11.35, "cluster_size": 20, "cluster_id": 1, "rank_in_cluster": 1}

>  <_RMSD_MCS_to_ref>  (830) 
1.973624331021484

$$$$
ligand
     RDKit          3D

 49 52  0  0  0  0  0  0  0  0999 V2000
   24.8710    9.6160    7.7820 C   0  0  0  0  0  0  0  0  0  0  0  0
   25.4240   10.9650    7.3490 C   0  0  0  0  0  0  0  0  0  0  0  0
   26.8110   11.1880    7.8420 C   0  0  0  0  0  0  0  0  0  0  0  0
   27.2500   12.0160    8.8560 C   0  0  0  0  0  0  0  0  0  0  0  0
   28.5980   11.8050    8.9020 N   0  0  0  0  0  0  0  0  0  0  0  0
   29.7110   12.7250    9.7720 S   0  0  0  0  0  6  0  0  0  0  0  0
   30.9990   12.3780    9.2040 O   0  0  0  0  0  0  0  0  0  0  0  0
   29.3890   12.4690   11.1630 O   0  0  0  0  0  0  0  0  0  0  0  0
   29.3700   14.2820    9.4200 O   0  0  0  0  0  0  0  0  0  0  0  0
   28.1000   14.8120    9.4200 C   0  0  0  0  0  0  0  0  0  0  0  0
   27.4740   14.7700    8.1000 C   0  0  0  0  0  0  0  0  0  0  0  0
   26.2300   15.2540    7.9400 C   0  0  0  0  0  0  0  0  0  0  0  0
   25.5650   15.7860    9.0400 N   0  0  0  0  0  0  0  0  0  0  0  0
   24.3090   16.3300    9.1280 C   0  0  0  0  0  0  0  0  0  0  0  0
   24.0260   16.7290   10.3480 N   0  0  0  0  0  0  0  0  0  0  0  0
   25.1540   16.4330   11.1080 C   0  0  0  0  0  0  0  0  0  0  0  0
   25.2340   16.7230   12.5390 C   0  0  0  0  0  0  0  0  0  0  0  0
   25.1240   15.8740   13.4170 O   0  0  0  0  0  0  0  0  0  0  0  0
   25.4350   18.0570   12.8000 N   0  0  0  0  0  0  0  0  0  0  0  0
   25.3870   18.6020   14.1420 C   0  0  1  0  0  0  0  0  0  0  0  0
   26.4010   17.9340   15.0650 C   0  0  0  0  0  0  0  0  0  0  0  0
   26.3170   18.5560   16.4500 C   0  0  0  0  0  0  0  0  0  0  0  0
   26.5140   20.0520   16.3910 C   0  0  0  0  0  0  0  0  0  0  0  0
   27.0560   20.6810   17.2950 O   0  0  0  0  0  0  0  0  0  0  0  0
   26.0230   20.6940   15.2820 N   0  0  0  0  0  0  0  0  0  0  0  0
   25.6720   20.1070   14.0900 C   0  0  0  0  0  0  0  0  0  0  0  0
   25.5770   20.7770   13.0630 O   0  0  0  0  0  0  0  0  0  0  0  0
   26.1190   15.8450   10.3080 C   0  0  0  0  0  0  0  0  0  0  0  0
   27.4410   15.3320   10.4820 C   0  0  0  0  0  0  0  0  0  0  0  0
   28.9480   10.9530    7.9040 C   0  0  0  0  0  0  0  0  0  0  0  0
   27.8790   10.5410    7.2540 N   0  0  0  0  0  0  0  0  0  0  0  0
   24.8497    9.5640    8.8806 H   0  0  0  0  0  0  0  0  0  0  0  0
   23.8507    9.4948    7.3893 H   0  0  0  0  0  0  0  0  0  0  0  0
   25.5127    8.8135    7.3893 H   0  0  0  0  0  0  0  0  0  0  0  0
   25.4270   11.0105    6.2499 H   0  0  0  0  0  0  0  0  0  0  0  0
   24.7822   11.7475    7.7801 H   0  0  0  0  0  0  0  0  0  0  0  0
   26.6503   12.6916    9.4836 H   0  0  0  0  0  0  0  0  0  0  0  0
   28.0172   14.3451    7.2430 H   0  0  0  0  0  0  0  0  0  0  0  0
   25.7448   15.2297    6.9531 H   0  0  0  0  0  0  0  0  0  0  0  0
   23.6187   16.4217    8.2765 H   0  0  0  0  0  0  0  0  0  0  0  0
   25.6268   18.6930   12.0129 H   0  0  0  0  0  0  0  0  0  0  0  0
   24.3817   18.4110   14.5455 H   0  0  0  0  0  0  0  0  0  0  0  0
   26.1813   16.8583   15.1328 H   0  0  0  0  0  0  0  0  0  0  0  0
   27.4137   18.0781   14.6605 H   0  0  0  0  0  0  0  0  0  0  0  0
   25.3276   18.3413   16.8801 H   0  0  0  0  0  0  0  0  0  0  0  0
   27.1137   18.1246   17.0739 H   0  0  0  0  0  0  0  0  0  0  0  0
   25.9062   21.7151   15.3496 H   0  0  0  0  0  0  0  0  0  0  0  0
   27.9200   15.3594   11.4719 H   0  0  0  0  0  0  0  0  0  0  0  0
   29.9794   10.6496    7.6712 H   0  0  0  0  0  0  0  0  0  0  0  0
  1  2  1  0
  2  3  1  0
  3  4  2  0
  4  5  1  0
  5  6  1  0
  6  7  2  0
  6  8  2  0
  6  9  1  0
  9 10  1  0
 10 11  1  0
 11 12  2  0
 12 13  1  0
 13 14  1  0
 14 15  2  0
 15 16  1  0
 16 17  1  0
 17 18  2  0
 17 19  1  0
 19 20  1  0
 20 21  1  0
 21 22  1  0
 22 23  1  0
 23 24  2  0
 23 25  1  0
 25 26  1  0
 26 27  2  0
 16 28  2  0
 28 29  1  0
  5 30  1  0
 30 31  2  0
 31  3  1  0
 29 10  2  0
 28 13  1  0
 26 20  1  0
  1 32  1  0
  1 33  1  0
  1 34  1  0
  2 35  1  0
  2 36  1  0
  4 37  1  0
 11 38  1  0
 12 39  1  0
 14 40  1  0
 19 41  1  0
 20 42  1  1
 21 43  1  0
 21 44  1  0
 22 45  1  0
 22 46  1  0
 25 47  1  0
 29 48  1  0
 30 49  1  0
M  END
>  <meeko>  (831) 
{"is_sidechain": [true], "free_energy": -11.35, "intermolecular_energy": 0.0, "internal_energy": -11.35, "cluster_size": 17, "cluster_id": 1, "rank_in_cluster": 1}

>  <_RMSD_MCS_to_ref>  (831) 
0.7950198460136426

$$$$
ligand
     RDKit          3D

 48 51  0  0  0  0  0  0  0  0999 V2000
   24.8710    9.6160    7.7820 C   0  0  0  0  0  0  0  0  0  0  0  0
   25.4240   10.9650    7.3490 C   0  0  0  0  0  0  0  0  0  0  0  0
   26.4920   11.4640    8.2600 C   0  0  0  0  0  0  0  0  0  0  0  0
   27.5310   12.3280    7.9750 C   0  0  0  0  0  0  0  0  0  0  0  0
   28.2020   12.4490    9.1580 N   0  0  0  0  0  0  0  0  0  0  0  0
   29.4550   13.5300    9.4890 S   0  0  0  0  0  6  0  0  0  0  0  0
   30.4060   13.3540    8.4060 O   0  0  0  0  0  0  0  0  0  0  0  0
   29.8300   13.2330   10.8590 O   0  0  0  0  0  0  0  0  0  0  0  0
   28.8780   15.0520    9.4400 O   0  0  0  0  0  0  0  0  0  0  0  0
   27.5170   15.1930    9.4580 C   0  0  0  0  0  0  0  0  0  0  0  0
   26.8070   14.9260    8.2950 C   0  0  0  0  0  0  0  0  0  0  0  0
   25.4230   15.0860    8.2930 C   0  0  0  0  0  0  0  0  0  0  0  0
   24.8690   15.5330    9.4910 C   0  0  0  0  0  0  0  0  0  0  0  0
   23.5910   15.8170    9.8790 N   0  0  0  0  0  0  0  0  0  0  0  0
   23.4820   16.2450   11.1470 N   0  0  0  0  0  0  0  0  0  0  0  0
   24.7490   16.2520   11.6150 C   0  0  0  0  0  0  0  0  0  0  0  0
   25.0740   16.6930   12.9820 C   0  0  0  0  0  0  0  0  0  0  0  0
   25.3250   15.9190   13.9030 O   0  0  0  0  0  0  0  0  0  0  0  0
   25.0680   18.0580   13.1760 N   0  0  0  0  0  0  0  0  0  0  0  0
   25.2330   18.6660   14.4850 C   0  0  1  0  0  0  0  0  0  0  0  0
   26.3150   17.9800   15.3120 C   0  0  0  0  0  0  0  0  0  0  0  0
   26.4480   18.6810   16.6550 C   0  0  0  0  0  0  0  0  0  0  0  0
   26.7350   20.1540   16.4800 C   0  0  0  0  0  0  0  0  0  0  0  0
   27.3850   20.7990   17.2980 O   0  0  0  0  0  0  0  0  0  0  0  0
   26.1840   20.7620   15.3810 N   0  0  0  0  0  0  0  0  0  0  0  0
   25.5860   20.1480   14.3060 C   0  0  0  0  0  0  0  0  0  0  0  0
   25.3150   20.7880   13.2880 O   0  0  0  0  0  0  0  0  0  0  0  0
   25.6480   15.8000   10.6070 C   0  0  0  0  0  0  0  0  0  0  0  0
   26.9980   15.6360   10.6190 N   0  0  0  0  0  0  0  0  0  0  0  0
   27.5660   11.7180   10.1090 C   0  0  0  0  0  0  0  0  0  0  0  0
   26.5190   11.1020    9.5950 N   0  0  0  0  0  0  0  0  0  0  0  0
   24.8497    9.5640    8.8806 H   0  0  0  0  0  0  0  0  0  0  0  0
   23.8507    9.4948    7.3893 H   0  0  0  0  0  0  0  0  0  0  0  0
   25.5127    8.8135    7.3893 H   0  0  0  0  0  0  0  0  0  0  0  0
   25.8422   10.8660    6.3364 H   0  0  0  0  0  0  0  0  0  0  0  0
   24.5966   11.6893    7.3765 H   0  0  0  0  0  0  0  0  0  0  0  0
   27.7648   12.8091    7.0138 H   0  0  0  0  0  0  0  0  0  0  0  0
   27.3305   14.5924    7.3869 H   0  0  0  0  0  0  0  0  0  0  0  0
   24.8089   14.8737    7.4054 H   0  0  0  0  0  0  0  0  0  0  0  0
   22.7801   15.7119    9.2527 H   0  0  0  0  0  0  0  0  0  0  0  0
   24.9413   18.6722   12.3589 H   0  0  0  0  0  0  0  0  0  0  0  0
   24.2846   18.5538   15.0308 H   0  0  0  0  0  0  0  0  0  0  0  0
   26.0406   16.9271   15.4736 H   0  0  0  0  0  0  0  0  0  0  0  0
   27.2739   18.0310   14.7754 H   0  0  0  0  0  0  0  0  0  0  0  0
   25.5087   18.5631   17.2152 H   0  0  0  0  0  0  0  0  0  0  0  0
   27.2873   18.2266   17.2019 H   0  0  0  0  0  0  0  0  0  0  0  0
   26.2224   21.7910   15.3586 H   0  0  0  0  0  0  0  0  0  0  0  0
   27.8799   11.6491   11.1610 H   0  0  0  0  0  0  0  0  0  0  0  0
  1  2  1  0
  2  3  1  0
  3  4  2  0
  4  5  1  0
  5  6  1  0
  6  7  2  0
  6  8  2  0
  6  9  1  0
  9 10  1  0
 10 11  2  0
 11 12  1  0
 12 13  2  0
 13 14  1  0
 14 15  1  0
 15 16  2  0
 16 17  1  0
 17 18  2  0
 17 19  1  0
 19 20  1  0
 20 21  1  0
 21 22  1  0
 22 23  1  0
 23 24  2  0
 23 25  1  0
 25 26  1  0
 26 27  2  0
 16 28  1  0
 28 29  2  0
  5 30  1  0
 30 31  2  0
 31  3  1  0
 29 10  1  0
 28 13  1  0
 26 20  1  0
  1 32  1  0
  1 33  1  0
  1 34  1  0
  2 35  1  0
  2 36  1  0
  4 37  1  0
 11 38  1  0
 12 39  1  0
 14 40  1  0
 19 41  1  0
 20 42  1  1
 21 43  1  0
 21 44  1  0
 22 45  1  0
 22 46  1  0
 25 47  1  0
 30 48  1  0
M  END
>  <meeko>  (832) 
{"is_sidechain": [true], "free_energy": -11.35, "intermolecular_energy": 0.0, "internal_energy": -11.35, "cluster_size": 15, "cluster_id": 1, "rank_in_cluster": 1}

>  <_RMSD_MCS_to_ref>  (832) 
0.6820755090164143

$$$$
ligand
     RDKit          3D

 59 64  0  0  0  0  0  0  0  0999 V2000
   24.8710    9.6160    7.7820 C   0  0  0  0  0  0  0  0  0  0  0  0
   25.4240   10.9650    7.3490 C   0  0  0  0  0  0  0  0  0  0  0  0
   24.9530   11.3520    5.9910 C   0  0  0  0  0  0  0  0  0  0  0  0
   24.3240   12.5150    5.5890 C   0  0  0  0  0  0  0  0  0  0  0  0
   24.0930   12.3210    4.2580 N   0  0  0  0  0  0  0  0  0  0  0  0
   23.4460   13.4580    3.2010 S   0  0  0  0  0  6  0  0  0  0  0  0
   23.6340   12.8550    1.8940 O   0  0  0  0  0  0  0  0  0  0  0  0
   22.1130   13.7500    3.6960 O   0  0  0  0  0  0  0  0  0  0  0  0
   24.3800   14.8000    3.2630 O   0  0  0  0  0  0  0  0  0  0  0  0
   25.2930   14.9820    4.2780 C   0  0  0  0  0  0  0  0  0  0  0  0
   24.8140   15.2160    5.5660 C   0  0  0  0  0  0  0  0  0  0  0  0
   25.7090   15.4380    6.6240 C   0  0  0  0  0  0  0  0  0  0  0  0
   25.2380   15.6700    8.0100 C   0  0  0  0  0  0  0  0  0  0  0  0
   24.1130   14.9810    8.5390 C   0  0  0  0  0  0  0  0  0  0  0  0
   23.6610   15.2010    9.8460 C   0  0  0  0  0  0  0  0  0  0  0  0
   24.3540   16.1110   10.6140 C   0  0  0  0  0  0  0  0  0  0  0  0
   25.4640   16.8000   10.1380 C   0  0  0  0  0  0  0  0  0  0  0  0
   25.9140   16.5890    8.8440 C   0  0  0  0  0  0  0  0  0  0  0  0
   25.9840   17.7190   11.1900 C   0  0  0  0  0  0  0  0  0  0  0  0
   25.1380   17.4070   12.3340 N   0  0  0  0  0  0  0  0  0  0  0  0
   25.1530   18.2340   13.5360 C   0  0  2  0  0  0  0  0  0  0  0  0
   25.7290   19.6320   13.3130 C   0  0  0  0  0  0  0  0  0  0  0  0
   25.6410   20.4260   14.6070 C   0  0  0  0  0  0  0  0  0  0  0  0
   26.3490   19.7130   15.7360 C   0  0  0  0  0  0  0  0  0  0  0  0
   26.7670   20.3090   16.7250 O   0  0  0  0  0  0  0  0  0  0  0  0
   26.4280   18.3460   15.6490 N   0  0  0  0  0  0  0  0  0  0  0  0
   25.8820   17.5260   14.6880 C   0  0  0  0  0  0  0  0  0  0  0  0
   25.9010   16.3040   14.8310 O   0  0  0  0  0  0  0  0  0  0  0  0
   24.1110   16.5380   11.9960 C   0  0  0  0  0  0  0  0  0  0  0  0
   23.1630   16.1850   12.6700 O   0  0  0  0  0  0  0  0  0  0  0  0
   27.0580   15.4760    6.4690 N   0  0  0  0  0  0  0  0  0  0  0  0
   27.5090   15.2740    5.2100 C   0  0  0  0  0  0  0  0  0  0  0  0
   28.8250   15.2610    4.6980 C   0  0  0  0  0  0  0  0  0  0  0  0
   28.7070   15.0320    3.3450 C   0  0  0  0  0  0  0  0  0  0  0  0
   27.3990   14.9010    2.9910 O   0  0  0  0  0  0  0  0  0  0  0  0
   26.6710   15.0360    4.1310 C   0  0  0  0  0  0  0  0  0  0  0  0
   24.6360   11.1380    3.8750 C   0  0  0  0  0  0  0  0  0  0  0  0
   25.1390   10.5060    4.9150 N   0  0  0  0  0  0  0  0  0  0  0  0
   24.8497    9.5640    8.8806 H   0  0  0  0  0  0  0  0  0  0  0  0
   23.8507    9.4948    7.3893 H   0  0  0  0  0  0  0  0  0  0  0  0
   25.5127    8.8135    7.3893 H   0  0  0  0  0  0  0  0  0  0  0  0
   25.0980   11.7300    8.0691 H   0  0  0  0  0  0  0  0  0  0  0  0
   26.5209   10.8881    7.3186 H   0  0  0  0  0  0  0  0  0  0  0  0
   24.0687   13.3933    6.2001 H   0  0  0  0  0  0  0  0  0  0  0  0
   23.7302   15.2267    5.7539 H   0  0  0  0  0  0  0  0  0  0  0  0
   23.5830   14.2553    7.9046 H   0  0  0  0  0  0  0  0  0  0  0  0
   22.7856   14.6673   10.2445 H   0  0  0  0  0  0  0  0  0  0  0  0
   26.7926   17.1340    8.4683 H   0  0  0  0  0  0  0  0  0  0  0  0
   27.0416   17.5117   11.4104 H   0  0  0  0  0  0  0  0  0  0  0  0
   25.9510   18.7792   10.8988 H   0  0  0  0  0  0  0  0  0  0  0  0
   24.0976   18.3758   13.8118 H   0  0  0  0  0  0  0  0  0  0  0  0
   26.7813   19.5504   13.0032 H   0  0  0  0  0  0  0  0  0  0  0  0
   25.1554   20.1450   12.5270 H   0  0  0  0  0  0  0  0  0  0  0  0
   26.1077   21.4106   14.4561 H   0  0  0  0  0  0  0  0  0  0  0  0
   24.5801   20.5362   14.8761 H   0  0  0  0  0  0  0  0  0  0  0  0
   26.9613   17.8759   16.3943 H   0  0  0  0  0  0  0  0  0  0  0  0
   29.7564   15.4048    5.2653 H   0  0  0  0  0  0  0  0  0  0  0  0
   29.5537   14.9642    2.6461 H   0  0  0  0  0  0  0  0  0  0  0  0
   24.6536   10.7603    2.8420 H   0  0  0  0  0  0  0  0  0  0  0  0
  1  2  1  0
  2  3  1  0
  3  4  2  0
  4  5  1  0
  5  6  1  0
  6  7  2  0
  6  8  2  0
  6  9  1  0
  9 10  1  0
 10 11  2  0
 11 12  1  0
 12 13  1  0
 13 14  2  0
 14 15  1  0
 15 16  2  0
 16 17  1  0
 17 18  2  0
 17 19  1  0
 19 20  1  0
 20 21  1  0
 21 22  1  0
 22 23  1  0
 23 24  1  0
 24 25  2  0
 24 26  1  0
 26 27  1  0
 27 28  2  0
 20 29  1  0
 29 30  2  0
 12 31  2  0
 31 32  1  0
 32 33  1  0
 33 34  2  0
 34 35  1  0
 35 36  1  0
  5 37  1  0
 37 38  2  0
 38  3  1  0
 36 10  1  0
 18 13  1  0
 27 21  1  0
 36 32  2  0
 29 16  1  0
  1 39  1  0
  1 40  1  0
  1 41  1  0
  2 42  1  0
  2 43  1  0
  4 44  1  0
 11 45  1  0
 14 46  1  0
 15 47  1  0
 18 48  1  0
 19 49  1  0
 19 50  1  0
 21 51  1  1
 22 52  1  0
 22 53  1  0
 23 54  1  0
 23 55  1  0
 26 56  1  0
 33 57  1  0
 34 58  1  0
 37 59  1  0
M  END
>  <meeko>  (833) 
{"is_sidechain": [true], "free_energy": -11.34, "intermolecular_energy": 0.0, "internal_energy": -11.34, "cluster_size": 6, "cluster_id": 2, "rank_in_cluster": 1}

>  <_RMSD_MCS_to_ref>  (833) 
1.7856060890530026

$$$$
ligand
     RDKit          3D

 46 49  0  0  0  0  0  0  0  0999 V2000
   24.8710    9.6160    7.7820 C   0  0  0  0  0  0  0  0  0  0  0  0
   25.4240   10.9650    7.3490 C   0  0  0  0  0  0  0  0  0  0  0  0
   26.4140   11.5040    8.3200 C   0  0  0  0  0  0  0  0  0  0  0  0
   27.1640   12.6620    8.2460 C   0  0  0  0  0  0  0  0  0  0  0  0
   27.8680   12.6800    9.4170 N   0  0  0  0  0  0  0  0  0  0  0  0
   29.1440   13.7240    9.7810 S   0  0  0  0  0  6  0  0  0  0  0  0
   29.7030   13.1910   11.0090 O   0  0  0  0  0  0  0  0  0  0  0  0
   29.9070   13.8010    8.5500 O   0  0  0  0  0  0  0  0  0  0  0  0
   28.4530   15.1690   10.0830 O   0  0  0  0  0  0  0  0  0  0  0  0
   27.0930   15.3690   10.1120 C   0  0  0  0  0  0  0  0  0  0  0  0
   26.4740   15.8770   11.1930 C   0  0  0  0  0  0  0  0  0  0  0  0
   25.1140   15.9910   11.0030 N   0  0  0  0  0  0  0  0  0  0  0  0
   24.0220   16.4210   11.7200 C   0  0  0  0  0  0  0  0  0  0  0  0
   24.0710   16.9410   13.0580 C   0  0  0  0  0  0  0  0  0  0  0  0
   23.2220   16.6850   13.9070 O   0  0  0  0  0  0  0  0  0  0  0  0
   25.1360   17.7630   13.3370 N   0  0  0  0  0  0  0  0  0  0  0  0
   25.2460   18.4700   14.6050 C   0  0  1  0  0  0  0  0  0  0  0  0
   26.1860   17.7710   15.5800 C   0  0  0  0  0  0  0  0  0  0  0  0
   26.2850   18.5860   16.8620 C   0  0  0  0  0  0  0  0  0  0  0  0
   26.7190   20.0050   16.5780 C   0  0  0  0  0  0  0  0  0  0  0  0
   27.4220   20.6470   17.3530 O   0  0  0  0  0  0  0  0  0  0  0  0
   26.2620   20.5660   15.4120 N   0  0  0  0  0  0  0  0  0  0  0  0
   25.7770   19.8800   14.3270 C   0  0  0  0  0  0  0  0  0  0  0  0
   25.7690   20.3810   13.2030 O   0  0  0  0  0  0  0  0  0  0  0  0
   22.9660   16.2250   10.8310 C   0  0  0  0  0  0  0  0  0  0  0  0
   23.3810   15.6960    9.6250 N   0  0  0  0  0  0  0  0  0  0  0  0
   24.6670   15.5770    9.7850 C   0  0  0  0  0  0  0  0  0  0  0  0
   25.9680   15.0080    8.7900 S   0  0  0  0  0  0  0  0  0  0  0  0
   27.6090   11.5410   10.1090 C   0  0  0  0  0  0  0  0  0  0  0  0
   26.7110   10.8130    9.4790 N   0  0  0  0  0  0  0  0  0  0  0  0
   24.8497    9.5640    8.8806 H   0  0  0  0  0  0  0  0  0  0  0  0
   23.8507    9.4948    7.3893 H   0  0  0  0  0  0  0  0  0  0  0  0
   25.5127    8.8135    7.3893 H   0  0  0  0  0  0  0  0  0  0  0  0
   25.9137   10.8497    6.3708 H   0  0  0  0  0  0  0  0  0  0  0  0
   24.5838   11.6730    7.2949 H   0  0  0  0  0  0  0  0  0  0  0  0
   27.1887   13.4004    7.4310 H   0  0  0  0  0  0  0  0  0  0  0  0
   26.9922   16.1670   12.1189 H   0  0  0  0  0  0  0  0  0  0  0  0
   25.8760   17.8822   12.6306 H   0  0  0  0  0  0  0  0  0  0  0  0
   24.2488   18.4969   15.0685 H   0  0  0  0  0  0  0  0  0  0  0  0
   25.7953   16.7692   15.8116 H   0  0  0  0  0  0  0  0  0  0  0  0
   27.1836   17.6794   15.1257 H   0  0  0  0  0  0  0  0  0  0  0  0
   25.3005   18.6037   17.3523 H   0  0  0  0  0  0  0  0  0  0  0  0
   27.0362   18.1171   17.5145 H   0  0  0  0  0  0  0  0  0  0  0  0
   26.2851   21.5936   15.3453 H   0  0  0  0  0  0  0  0  0  0  0  0
   21.9183   16.4652   11.0645 H   0  0  0  0  0  0  0  0  0  0  0  0
   28.0831   11.2651   11.0625 H   0  0  0  0  0  0  0  0  0  0  0  0
  1  2  1  0
  2  3  1  0
  3  4  2  0
  4  5  1  0
  5  6  1  0
  6  7  2  0
  6  8  2  0
  6  9  1  0
  9 10  1  0
 10 11  2  0
 11 12  1  0
 12 13  1  0
 13 14  1  0
 14 15  2  0
 14 16  1  0
 16 17  1  0
 17 18  1  0
 18 19  1  0
 19 20  1  0
 20 21  2  0
 20 22  1  0
 22 23  1  0
 23 24  2  0
 13 25  2  0
 25 26  1  0
 26 27  2  0
 27 28  1  0
  5 29  1  0
 29 30  2  0
 30  3  1  0
 28 10  1  0
 27 12  1  0
 23 17  1  0
  1 31  1  0
  1 32  1  0
  1 33  1  0
  2 34  1  0
  2 35  1  0
  4 36  1  0
 11 37  1  0
 16 38  1  0
 17 39  1  1
 18 40  1  0
 18 41  1  0
 19 42  1  0
 19 43  1  0
 22 44  1  0
 25 45  1  0
 29 46  1  0
M  END
>  <meeko>  (834) 
{"is_sidechain": [true], "free_energy": -11.34, "intermolecular_energy": 0.0, "internal_energy": -11.34, "cluster_size": 20, "cluster_id": 1, "rank_in_cluster": 1}

>  <_RMSD_MCS_to_ref>  (834) 
0.6561409909463053

$$$$
ligand
     RDKit          3D

 51 54  0  0  0  0  0  0  0  0999 V2000
   24.8710    9.6160    7.7820 C   0  0  0  0  0  0  0  0  0  0  0  0
   25.4240   10.9650    7.3490 C   0  0  0  0  0  0  0  0  0  0  0  0
   26.6690   11.3250    8.0810 C   0  0  0  0  0  0  0  0  0  0  0  0
   27.8690   11.7880    7.5800 C   0  0  0  0  0  0  0  0  0  0  0  0
   28.6640   11.9220    8.6820 N   0  0  0  0  0  0  0  0  0  0  0  0
   30.1640   12.6890    8.7260 S   0  0  0  0  0  6  0  0  0  0  0  0
   30.7220   12.3280   10.0160 O   0  0  0  0  0  0  0  0  0  0  0  0
   30.8060   12.3110    7.4810 O   0  0  0  0  0  0  0  0  0  0  0  0
   29.8450   14.2880    8.7050 O   0  0  0  0  0  0  0  0  0  0  0  0
   28.5870   14.7960    8.9150 C   0  0  0  0  0  0  0  0  0  0  0  0
   27.7370   14.7370    7.8060 C   0  0  0  0  0  0  0  0  0  0  0  0
   26.4310   15.2230    7.8850 C   0  0  0  0  0  0  0  0  0  0  0  0
   25.9810   15.7710    9.0830 C   0  0  0  0  0  0  0  0  0  0  0  0
   24.6740   16.2510    9.1820 N   0  0  0  0  0  0  0  0  0  0  0  0
   24.1850   16.7740   10.3550 C   0  0  0  0  0  0  0  0  0  0  0  0
   23.0200   17.1160   10.4880 O   0  0  0  0  0  0  0  0  0  0  0  0
   25.1780   16.8670   11.5060 C   0  0  0  0  0  0  0  0  0  0  0  0
   24.7890   17.4940   12.8330 C   0  0  0  0  0  0  0  0  0  0  0  0
   23.6320   17.8080   13.0600 O   0  0  0  0  0  0  0  0  0  0  0  0
   25.8540   17.7140   13.6800 N   0  0  0  0  0  0  0  0  0  0  0  0
   25.7030   18.5140   14.8840 C   0  0  1  0  0  0  0  0  0  0  0  0
   26.5890   18.0160   16.0210 C   0  0  0  0  0  0  0  0  0  0  0  0
   26.4080   18.9120   17.2360 C   0  0  0  0  0  0  0  0  0  0  0  0
   26.6890   20.3570   16.8990 C   0  0  0  0  0  0  0  0  0  0  0  0
   27.1780   21.1400   17.7090 O   0  0  0  0  0  0  0  0  0  0  0  0
   26.3380   20.7740   15.6400 N   0  0  0  0  0  0  0  0  0  0  0  0
   26.0700   19.9660   14.5620 C   0  0  0  0  0  0  0  0  0  0  0  0
   26.1070   20.4070   13.4140 O   0  0  0  0  0  0  0  0  0  0  0  0
   26.3990   16.4020   11.4240 N   0  0  0  0  0  0  0  0  0  0  0  0
   26.8210   15.8420   10.2050 C   0  0  0  0  0  0  0  0  0  0  0  0
   28.1260   15.3500   10.1110 C   0  0  0  0  0  0  0  0  0  0  0  0
   27.9370   11.6310    9.7910 C   0  0  0  0  0  0  0  0  0  0  0  0
   26.7240   11.2400    9.4580 N   0  0  0  0  0  0  0  0  0  0  0  0
   24.8497    9.5640    8.8806 H   0  0  0  0  0  0  0  0  0  0  0  0
   23.8507    9.4948    7.3893 H   0  0  0  0  0  0  0  0  0  0  0  0
   25.5127    8.8135    7.3893 H   0  0  0  0  0  0  0  0  0  0  0  0
   25.6447   10.9279    6.2720 H   0  0  0  0  0  0  0  0  0  0  0  0
   24.6661   11.7289    7.5770 H   0  0  0  0  0  0  0  0  0  0  0  0
   28.1262   12.0006    6.5318 H   0  0  0  0  0  0  0  0  0  0  0  0
   28.1011   14.3036    6.8628 H   0  0  0  0  0  0  0  0  0  0  0  0
   25.7651   15.1736    7.0109 H   0  0  0  0  0  0  0  0  0  0  0  0
   24.0608   16.2122    8.3553 H   0  0  0  0  0  0  0  0  0  0  0  0
   26.7722   17.3046   13.4559 H   0  0  0  0  0  0  0  0  0  0  0  0
   24.6572   18.4338   15.2155 H   0  0  0  0  0  0  0  0  0  0  0  0
   26.3069   16.9850   16.2807 H   0  0  0  0  0  0  0  0  0  0  0  0
   27.6415   18.0396   15.7022 H   0  0  0  0  0  0  0  0  0  0  0  0
   25.3724   18.8229   17.5958 H   0  0  0  0  0  0  0  0  0  0  0  0
   27.1187   18.5920   18.0123 H   0  0  0  0  0  0  0  0  0  0  0  0
   26.2688   21.7905   15.4886 H   0  0  0  0  0  0  0  0  0  0  0  0
   28.7934   15.3995   10.9840 H   0  0  0  0  0  0  0  0  0  0  0  0
   28.3088   11.7106   10.8232 H   0  0  0  0  0  0  0  0  0  0  0  0
  1  2  1  0
  2  3  1  0
  3  4  2  0
  4  5  1  0
  5  6  1  0
  6  7  2  0
  6  8  2  0
  6  9  1  0
  9 10  1  0
 10 11  2  0
 11 12  1  0
 12 13  2  0
 13 14  1  0
 14 15  1  0
 15 16  2  0
 15 17  1  0
 17 18  1  0
 18 19  2  0
 18 20  1  0
 20 21  1  0
 21 22  1  0
 22 23  1  0
 23 24  1  0
 24 25  2  0
 24 26  1  0
 26 27  1  0
 27 28  2  0
 17 29  2  0
 29 30  1  0
 30 31  2  0
  5 32  1  0
 32 33  2  0
 33  3  1  0
 31 10  1  0
 30 13  1  0
 27 21  1  0
  1 34  1  0
  1 35  1  0
  1 36  1  0
  2 37  1  0
  2 38  1  0
  4 39  1  0
 11 40  1  0
 12 41  1  0
 14 42  1  0
 20 43  1  0
 21 44  1  1
 22 45  1  0
 22 46  1  0
 23 47  1  0
 23 48  1  0
 26 49  1  0
 31 50  1  0
 32 51  1  0
M  END
>  <meeko>  (835) 
{"is_sidechain": [true], "free_energy": -11.34, "intermolecular_energy": 0.0, "internal_energy": -11.34, "cluster_size": 6, "cluster_id": 1, "rank_in_cluster": 1}

>  <_RMSD_MCS_to_ref>  (835) 
1.069741401772721

$$$$
ligand
     RDKit          3D

 55 59  0  0  0  0  0  0  0  0999 V2000
   24.8540    9.4020    7.6050 C   0  0  0  0  0  0  0  0  0  0  0  0
   25.5230   10.7550    7.4270 C   0  0  0  0  0  0  0  0  0  0  0  0
   27.0040   10.6700    7.5420 C   0  0  0  0  0  0  0  0  0  0  0  0
   27.9400   11.6830    7.4830 C   0  0  0  0  0  0  0  0  0  0  0  0
   29.1380   11.0410    7.6190 N   0  0  0  0  0  0  0  0  0  0  0  0
   30.6340   11.7800    7.8170 S   0  0  0  0  0  6  0  0  0  0  0  0
   31.0970   12.0900    6.4780 O   0  0  0  0  0  0  0  0  0  0  0  0
   31.3830   10.9240    8.7170 O   0  0  0  0  0  0  0  0  0  0  0  0
   30.2420   13.2910    8.6520 C   0  0  0  0  0  0  0  0  0  0  0  0
   31.2650   14.1620    9.0240 C   0  0  0  0  0  0  0  0  0  0  0  0
   30.9430   15.3480    9.6790 C   0  0  0  0  0  0  0  0  0  0  0  0
   29.6070   15.6560    9.9640 C   0  0  0  0  0  0  0  0  0  0  0  0
   28.5720   14.7790    9.6040 C   0  0  0  0  0  0  0  0  0  0  0  0
   27.1680   15.0900    9.9020 C   0  0  0  0  0  0  0  0  0  0  0  0
   26.0050   14.6290    9.2330 C   0  0  0  0  0  0  0  0  0  0  0  0
   24.9360   15.1950    9.8840 C   0  0  0  0  0  0  0  0  0  0  0  0
   23.5900   15.1100    9.6690 N   0  0  0  0  0  0  0  0  0  0  0  0
   22.8500   15.8000   10.4830 C   0  0  0  0  0  0  0  0  0  0  0  0
   23.3260   16.6480   11.6090 C   0  0  0  0  0  0  0  0  0  0  0  0
   24.6570   16.7060   11.8000 C   0  0  0  0  0  0  0  0  0  0  0  0
   25.3140   17.4420   12.7920 N   0  0  0  0  0  0  0  0  0  0  0  0
   24.6820   18.1650   13.8970 C   0  0  1  0  0  0  0  0  0  0  0  0
   25.2360   17.6850   15.2370 C   0  0  0  0  0  0  0  0  0  0  0  0
   26.6760   18.1310   15.4450 C   0  0  0  0  0  0  0  0  0  0  0  0
   26.8270   19.6190   15.2550 C   0  0  0  0  0  0  0  0  0  0  0  0
   27.6440   20.2830   15.8870 O   0  0  0  0  0  0  0  0  0  0  0  0
   26.0220   20.2060   14.3140 N   0  0  0  0  0  0  0  0  0  0  0  0
   24.8820   19.6790   13.7590 C   0  0  0  0  0  0  0  0  0  0  0  0
   24.0810   20.4020   13.1650 O   0  0  0  0  0  0  0  0  0  0  0  0
   25.4790   15.9600   10.9130 N   0  0  0  0  0  0  0  0  0  0  0  0
   26.8420   15.9020   10.9210 N   0  0  0  0  0  0  0  0  0  0  0  0
   28.9070   13.5830    8.9480 C   0  0  0  0  0  0  0  0  0  0  0  0
   28.9130    9.7150    7.8040 C   0  0  0  0  0  0  0  0  0  0  0  0
   27.6240    9.4530    7.7500 N   0  0  0  0  0  0  0  0  0  0  0  0
   24.7464    9.1845    8.6779 H   0  0  0  0  0  0  0  0  0  0  0  0
   23.8606    9.4192    7.1330 H   0  0  0  0  0  0  0  0  0  0  0  0
   25.4708    8.6230    7.1330 H   0  0  0  0  0  0  0  0  0  0  0  0
   25.2671   11.1484    6.4322 H   0  0  0  0  0  0  0  0  0  0  0  0
   25.1601   11.4185    8.2258 H   0  0  0  0  0  0  0  0  0  0  0  0
   27.7618   12.7610    7.3556 H   0  0  0  0  0  0  0  0  0  0  0  0
   32.3139   13.9154    8.8028 H   0  0  0  0  0  0  0  0  0  0  0  0
   31.7410   16.0454    9.9736 H   0  0  0  0  0  0  0  0  0  0  0  0
   29.3653   16.5985   10.4772 H   0  0  0  0  0  0  0  0  0  0  0  0
   25.9669   13.9531    8.3660 H   0  0  0  0  0  0  0  0  0  0  0  0
   21.7626   15.7528   10.3241 H   0  0  0  0  0  0  0  0  0  0  0  0
   22.6254   17.1998   12.2530 H   0  0  0  0  0  0  0  0  0  0  0  0
   26.3420   17.4787   12.7398 H   0  0  0  0  0  0  0  0  0  0  0  0
   23.6027   17.9558   13.8591 H   0  0  0  0  0  0  0  0  0  0  0  0
   24.6153   18.0961   16.0468 H   0  0  0  0  0  0  0  0  0  0  0  0
   25.2143   16.5852   15.2420 H   0  0  0  0  0  0  0  0  0  0  0  0
   26.9876   17.8678   16.4666 H   0  0  0  0  0  0  0  0  0  0  0  0
   27.3056   17.6225   14.7000 H   0  0  0  0  0  0  0  0  0  0  0  0
   26.3019   21.1422   13.9884 H   0  0  0  0  0  0  0  0  0  0  0  0
   28.1156   12.8730    8.6659 H   0  0  0  0  0  0  0  0  0  0  0  0
   29.6984    8.9641    7.9752 H   0  0  0  0  0  0  0  0  0  0  0  0
  1  2  1  0
  2  3  1  0
  3  4  2  0
  4  5  1  0
  5  6  1  0
  6  7  2  0
  6  8  2  0
  6  9  1  0
  9 10  2  0
 10 11  1  0
 11 12  2  0
 12 13  1  0
 13 14  1  0
 14 15  1  0
 15 16  2  0
 16 17  1  0
 17 18  2  0
 18 19  1  0
 19 20  2  0
 20 21  1  0
 21 22  1  0
 22 23  1  0
 23 24  1  0
 24 25  1  0
 25 26  2  0
 25 27  1  0
 27 28  1  0
 28 29  2  0
 20 30  1  0
 30 31  1  0
 13 32  2  0
  5 33  1  0
 33 34  2  0
 34  3  1  0
 32  9  1  0
 31 14  2  0
 30 16  1  0
 28 22  1  0
  1 35  1  0
  1 36  1  0
  1 37  1  0
  2 38  1  0
  2 39  1  0
  4 40  1  0
 10 41  1  0
 11 42  1  0
 12 43  1  0
 15 44  1  0
 18 45  1  0
 19 46  1  0
 21 47  1  0
 22 48  1  1
 23 49  1  0
 23 50  1  0
 24 51  1  0
 24 52  1  0
 27 53  1  0
 32 54  1  0
 33 55  1  0
M  END
>  <meeko>  (836) 
{"is_sidechain": [true], "free_energy": -11.33, "intermolecular_energy": 0.0, "internal_energy": -11.33, "cluster_size": 12, "cluster_id": 1, "rank_in_cluster": 1}

>  <_RMSD_MCS_to_ref>  (836) 
1.020237118408156

$$$$
ligand
     RDKit          3D

 56 60  0  0  0  0  0  0  0  0999 V2000
   24.8710    9.6160    7.7820 C   0  0  0  0  0  0  0  0  0  0  0  0
   25.4240   10.9650    7.3490 C   0  0  0  0  0  0  0  0  0  0  0  0
   25.0000   11.3450    5.9720 C   0  0  0  0  0  0  0  0  0  0  0  0
   24.2020   12.3990    5.5720 C   0  0  0  0  0  0  0  0  0  0  0  0
   24.1410   12.2770    4.2140 N   0  0  0  0  0  0  0  0  0  0  0  0
   23.2340   13.2200    3.1520 S   0  0  0  0  0  6  0  0  0  0  0  0
   23.4300   12.5710    1.8670 O   0  0  0  0  0  0  0  0  0  0  0  0
   21.9040   13.3090    3.7310 O   0  0  0  0  0  0  0  0  0  0  0  0
   23.8760   14.7120    3.0450 O   0  0  0  0  0  0  0  0  0  0  0  0
   24.9610   15.0020    3.8250 C   0  0  0  0  0  0  0  0  0  0  0  0
   26.2130   14.9810    3.2410 C   0  0  0  0  0  0  0  0  0  0  0  0
   27.3100   15.2320    4.0550 C   0  0  0  0  0  0  0  0  0  0  0  0
   27.1140   15.4770    5.4130 C   0  0  0  0  0  0  0  0  0  0  0  0
   25.8180   15.4580    5.9260 C   0  0  0  0  0  0  0  0  0  0  0  0
   25.5110   15.6880    7.3510 C   0  0  0  0  0  0  0  0  0  0  0  0
   24.4890   14.9630    8.0190 C   0  0  0  0  0  0  0  0  0  0  0  0
   24.2100   15.1630    9.3770 C   0  0  0  0  0  0  0  0  0  0  0  0
   24.9680   16.0990   10.0500 C   0  0  0  0  0  0  0  0  0  0  0  0
   25.9770   16.8280    9.4320 C   0  0  0  0  0  0  0  0  0  0  0  0
   26.2580   16.6310    8.0910 C   0  0  0  0  0  0  0  0  0  0  0  0
   26.6350   17.7350   10.4160 C   0  0  0  0  0  0  0  0  0  0  0  0
   25.8560   17.5050   11.6280 N   0  0  0  0  0  0  0  0  0  0  0  0
   26.2870   17.9390   12.9500 C   0  0  2  0  0  0  0  0  0  0  0  0
   25.6990   17.0810   14.0670 C   0  0  0  0  0  0  0  0  0  0  0  0
   26.2620   17.5380   15.4040 C   0  0  0  0  0  0  0  0  0  0  0  0
   26.0050   19.0090   15.6320 C   0  0  0  0  0  0  0  0  0  0  0  0
   25.7940   19.4710   16.7490 O   0  0  0  0  0  0  0  0  0  0  0  0
   26.0450   19.8190   14.5260 N   0  0  0  0  0  0  0  0  0  0  0  0
   25.9390   19.4150   13.2140 C   0  0  0  0  0  0  0  0  0  0  0  0
   25.5920   20.2150   12.3470 O   0  0  0  0  0  0  0  0  0  0  0  0
   24.9170   16.4950   11.4610 C   0  0  0  0  0  0  0  0  0  0  0  0
   24.1850   16.0060   12.2980 O   0  0  0  0  0  0  0  0  0  0  0  0
   24.7440   15.2070    5.1350 N   0  0  0  0  0  0  0  0  0  0  0  0
   24.8530   11.1850    3.8310 C   0  0  0  0  0  0  0  0  0  0  0  0
   25.4140   10.6080    4.8750 N   0  0  0  0  0  0  0  0  0  0  0  0
   24.8497    9.5640    8.8806 H   0  0  0  0  0  0  0  0  0  0  0  0
   23.8507    9.4948    7.3893 H   0  0  0  0  0  0  0  0  0  0  0  0
   25.5127    8.8135    7.3893 H   0  0  0  0  0  0  0  0  0  0  0  0
   25.0681   11.7331    8.0514 H   0  0  0  0  0  0  0  0  0  0  0  0
   26.5214   10.8901    7.3500 H   0  0  0  0  0  0  0  0  0  0  0  0
   23.7246   13.1625    6.2038 H   0  0  0  0  0  0  0  0  0  0  0  0
   26.3367   14.7726    2.1680 H   0  0  0  0  0  0  0  0  0  0  0  0
   28.3252   15.2374    3.6314 H   0  0  0  0  0  0  0  0  0  0  0  0
   27.9709   15.6827    6.0714 H   0  0  0  0  0  0  0  0  0  0  0  0
   23.9006   14.2244    7.4548 H   0  0  0  0  0  0  0  0  0  0  0  0
   23.4174   14.5959    9.8871 H   0  0  0  0  0  0  0  0  0  0  0  0
   27.0593   17.2061    7.6040 H   0  0  0  0  0  0  0  0  0  0  0  0
   27.6903   17.4623   10.5641 H   0  0  0  0  0  0  0  0  0  0  0  0
   26.6514   18.7881   10.0987 H   0  0  0  0  0  0  0  0  0  0  0  0
   27.3805   17.8199   12.9551 H   0  0  0  0  0  0  0  0  0  0  0  0
   24.6042   17.1874   14.0740 H   0  0  0  0  0  0  0  0  0  0  0  0
   25.9627   16.0265   13.8982 H   0  0  0  0  0  0  0  0  0  0  0  0
   25.7847   16.9614   16.2100 H   0  0  0  0  0  0  0  0  0  0  0  0
   27.3493   17.3715   15.3988 H   0  0  0  0  0  0  0  0  0  0  0  0
   26.1662   20.8281   14.6932 H   0  0  0  0  0  0  0  0  0  0  0  0
   24.9481   10.8315    2.7937 H   0  0  0  0  0  0  0  0  0  0  0  0
  1  2  1  0
  2  3  1  0
  3  4  2  0
  4  5  1  0
  5  6  1  0
  6  7  2  0
  6  8  2  0
  6  9  1  0
  9 10  1  0
 10 11  2  0
 11 12  1  0
 12 13  2  0
 13 14  1  0
 14 15  1  0
 15 16  2  0
 16 17  1  0
 17 18  2  0
 18 19  1  0
 19 20  2  0
 19 21  1  0
 21 22  1  0
 22 23  1  0
 23 24  1  0
 24 25  1  0
 25 26  1  0
 26 27  2  0
 26 28  1  0
 28 29  1  0
 29 30  2  0
 22 31  1  0
 31 32  2  0
 14 33  2  0
  5 34  1  0
 34 35  2  0
 35  3  1  0
 33 10  1  0
 20 15  1  0
 29 23  1  0
 31 18  1  0
  1 36  1  0
  1 37  1  0
  1 38  1  0
  2 39  1  0
  2 40  1  0
  4 41  1  0
 11 42  1  0
 12 43  1  0
 13 44  1  0
 16 45  1  0
 17 46  1  0
 20 47  1  0
 21 48  1  0
 21 49  1  0
 23 50  1  6
 24 51  1  0
 24 52  1  0
 25 53  1  0
 25 54  1  0
 28 55  1  0
 34 56  1  0
M  END
>  <meeko>  (837) 
{"is_sidechain": [true], "free_energy": -11.33, "intermolecular_energy": 0.0, "internal_energy": -11.33, "cluster_size": 1, "cluster_id": 2, "rank_in_cluster": 1}

>  <_RMSD_MCS_to_ref>  (837) 
1.7173409985390666

$$$$
ligand
     RDKit          3D

 59 64  0  0  0  0  0  0  0  0999 V2000
   24.8710    9.6160    7.7820 C   0  0  0  0  0  0  0  0  0  0  0  0
   25.4240   10.9650    7.3490 C   0  0  0  0  0  0  0  0  0  0  0  0
   26.5740   11.3950    8.1910 C   0  0  0  0  0  0  0  0  0  0  0  0
   27.6690   12.1590    7.8380 C   0  0  0  0  0  0  0  0  0  0  0  0
   28.3990   12.2470    8.9880 N   0  0  0  0  0  0  0  0  0  0  0  0
   29.7740   13.1840    9.2390 S   0  0  0  0  0  6  0  0  0  0  0  0
   30.8780   12.4270    8.6690 O   0  0  0  0  0  0  0  0  0  0  0  0
   29.7550   13.4800   10.6600 O   0  0  0  0  0  0  0  0  0  0  0  0
   29.5930   14.5850    8.4340 O   0  0  0  0  0  0  0  0  0  0  0  0
   29.7080   14.6030    7.1000 C   0  0  0  0  0  0  0  0  0  0  0  0
   30.8940   14.3200    6.5620 N   0  0  0  0  0  0  0  0  0  0  0  0
   30.6700   14.3540    5.1890 O   0  0  0  0  0  0  0  0  0  0  0  0
   29.3580   14.6360    4.9490 C   0  0  0  0  0  0  0  0  0  0  0  0
   28.7590   14.7340    3.6960 C   0  0  0  0  0  0  0  0  0  0  0  0
   27.3920   15.0230    3.6850 C   0  0  0  0  0  0  0  0  0  0  0  0
   26.6800   15.2110    4.8760 C   0  0  0  0  0  0  0  0  0  0  0  0
   27.3120   15.1150    6.1330 C   0  0  0  0  0  0  0  0  0  0  0  0
   26.5940   15.3250    7.3890 C   0  0  0  0  0  0  0  0  0  0  0  0
   25.4280   14.5730    7.6800 C   0  0  0  0  0  0  0  0  0  0  0  0
   24.7460   14.7290    8.8900 C   0  0  0  0  0  0  0  0  0  0  0  0
   25.2570   15.6390    9.7940 C   0  0  0  0  0  0  0  0  0  0  0  0
   26.3940   16.3990    9.5340 C   0  0  0  0  0  0  0  0  0  0  0  0
   27.0640   16.2640    8.3300 C   0  0  0  0  0  0  0  0  0  0  0  0
   26.6900   17.2910   10.6940 C   0  0  0  0  0  0  0  0  0  0  0  0
   25.6700   16.9020   11.6590 N   0  0  0  0  0  0  0  0  0  0  0  0
   25.3940   17.6470   12.8810 C   0  0  1  0  0  0  0  0  0  0  0  0
   25.9690   16.9670   14.1200 C   0  0  0  0  0  0  0  0  0  0  0  0
   25.5650   17.7520   15.3590 C   0  0  0  0  0  0  0  0  0  0  0  0
   25.9960   19.1970   15.2550 C   0  0  0  0  0  0  0  0  0  0  0  0
   26.3700   19.8430   16.2300 O   0  0  0  0  0  0  0  0  0  0  0  0
   25.9320   19.7680   14.0100 N   0  0  0  0  0  0  0  0  0  0  0  0
   25.9210   19.0910   12.8120 C   0  0  0  0  0  0  0  0  0  0  0  0
   26.3190   19.6390   11.7870 O   0  0  0  0  0  0  0  0  0  0  0  0
   24.7650   15.9940   11.1290 C   0  0  0  0  0  0  0  0  0  0  0  0
   23.7550   15.5530   11.6420 O   0  0  0  0  0  0  0  0  0  0  0  0
   28.6900   14.8110    6.1500 C   0  0  0  0  0  0  0  0  0  0  0  0
   27.7420   11.5990    9.9840 C   0  0  0  0  0  0  0  0  0  0  0  0
   26.6370   11.0490    9.5270 N   0  0  0  0  0  0  0  0  0  0  0  0
   24.8497    9.5640    8.8806 H   0  0  0  0  0  0  0  0  0  0  0  0
   23.8507    9.4948    7.3893 H   0  0  0  0  0  0  0  0  0  0  0  0
   25.5127    8.8135    7.3893 H   0  0  0  0  0  0  0  0  0  0  0  0
   25.7575   10.8926    6.3033 H   0  0  0  0  0  0  0  0  0  0  0  0
   24.6238   11.7112    7.4618 H   0  0  0  0  0  0  0  0  0  0  0  0
   27.8999   12.5963    6.8554 H   0  0  0  0  0  0  0  0  0  0  0  0
   29.3300   14.5919    2.7666 H   0  0  0  0  0  0  0  0  0  0  0  0
   26.8653   15.1044    2.7227 H   0  0  0  0  0  0  0  0  0  0  0  0
   25.6047   15.4384    4.8301 H   0  0  0  0  0  0  0  0  0  0  0  0
   25.0525   13.8523    6.9387 H   0  0  0  0  0  0  0  0  0  0  0  0
   23.8380   14.1497    9.1133 H   0  0  0  0  0  0  0  0  0  0  0  0
   27.9490   16.8795    8.1110 H   0  0  0  0  0  0  0  0  0  0  0  0
   27.7005   17.1083   11.0883 H   0  0  0  0  0  0  0  0  0  0  0  0
   26.6689   18.3613   10.4409 H   0  0  0  0  0  0  0  0  0  0  0  0
   24.2976   17.6691   12.9669 H   0  0  0  0  0  0  0  0  0  0  0  0
   25.5775   15.9415   14.1911 H   0  0  0  0  0  0  0  0  0  0  0  0
   27.0661   16.9347   14.0463 H   0  0  0  0  0  0  0  0  0  0  0  0
   24.4713   17.7108   15.4691 H   0  0  0  0  0  0  0  0  0  0  0  0
   26.0599   17.3029   16.2327 H   0  0  0  0  0  0  0  0  0  0  0  0
   25.8882   20.7962   13.9677 H   0  0  0  0  0  0  0  0  0  0  0  0
   28.0854   11.5417   11.0275 H   0  0  0  0  0  0  0  0  0  0  0  0
  1  2  1  0
  2  3  1  0
  3  4  2  0
  4  5  1  0
  5  6  1  0
  6  7  2  0
  6  8  2  0
  6  9  1  0
  9 10  1  0
 10 11  2  0
 11 12  1  0
 12 13  1  0
 13 14  2  0
 14 15  1  0
 15 16  2  0
 16 17  1  0
 17 18  1  0
 18 19  2  0
 19 20  1  0
 20 21  2  0
 21 22  1  0
 22 23  2  0
 22 24  1  0
 24 25  1  0
 25 26  1  0
 26 27  1  0
 27 28  1  0
 28 29  1  0
 29 30  2  0
 29 31  1  0
 31 32  1  0
 32 33  2  0
 25 34  1  0
 34 35  2  0
 17 36  2  0
  5 37  1  0
 37 38  2  0
 38  3  1  0
 36 10  1  0
 36 13  1  0
 23 18  1  0
 32 26  1  0
 34 21  1  0
  1 39  1  0
  1 40  1  0
  1 41  1  0
  2 42  1  0
  2 43  1  0
  4 44  1  0
 14 45  1  0
 15 46  1  0
 16 47  1  0
 19 48  1  0
 20 49  1  0
 23 50  1  0
 24 51  1  0
 24 52  1  0
 26 53  1  1
 27 54  1  0
 27 55  1  0
 28 56  1  0
 28 57  1  0
 31 58  1  0
 37 59  1  0
M  END
>  <meeko>  (838) 
{"is_sidechain": [true], "free_energy": -11.33, "intermolecular_energy": 0.0, "internal_energy": -11.33, "cluster_size": 4, "cluster_id": 1, "rank_in_cluster": 1}

>  <_RMSD_MCS_to_ref>  (838) 
1.9898682580036615

$$$$
ligand
     RDKit          3D

 53 57  0  0  0  0  0  0  0  0999 V2000
   24.8710    9.6160    7.7820 C   0  0  0  0  0  0  0  0  0  0  0  0
   25.4240   10.9650    7.3490 C   0  0  0  0  0  0  0  0  0  0  0  0
   26.5880   11.3860    8.1750 C   0  0  0  0  0  0  0  0  0  0  0  0
   27.7060   12.1030    7.7970 C   0  0  0  0  0  0  0  0  0  0  0  0
   28.4510   12.1860    8.9400 N   0  0  0  0  0  0  0  0  0  0  0  0
   29.9150   13.0060    9.0980 S   0  0  0  0  0  6  0  0  0  0  0  0
   30.8550   12.1680    8.3710 O   0  0  0  0  0  0  0  0  0  0  0  0
   30.0980   13.2460   10.5180 O   0  0  0  0  0  0  0  0  0  0  0  0
   29.8270   14.4200    8.3040 O   0  0  0  0  0  0  0  0  0  0  0  0
   28.9670   14.6540    7.3040 C   0  0  0  0  0  0  0  0  0  0  0  0
   29.3470   14.5010    6.0370 N   0  0  0  0  0  0  0  0  0  0  0  0
   28.2320   14.8780    5.3900 N   0  0  0  0  0  0  0  0  0  0  0  0
   27.1850   15.2860    6.1240 N   0  0  0  0  0  0  0  0  0  0  0  0
   27.6370   15.1410    7.3850 C   0  0  0  0  0  0  0  0  0  0  0  0
   26.8130   15.4770    8.5480 C   0  0  0  0  0  0  0  0  0  0  0  0
   25.5880   14.8130    8.7960 C   0  0  0  0  0  0  0  0  0  0  0  0
   24.8030   15.1290    9.9110 C   0  0  0  0  0  0  0  0  0  0  0  0
   25.2650   16.1180   10.7560 C   0  0  0  0  0  0  0  0  0  0  0  0
   26.4610   16.7940   10.5370 C   0  0  0  0  0  0  0  0  0  0  0  0
   27.2450   16.4850    9.4370 C   0  0  0  0  0  0  0  0  0  0  0  0
   26.6940   17.7900   11.6240 C   0  0  0  0  0  0  0  0  0  0  0  0
   25.4800   17.6760   12.4220 N   0  0  0  0  0  0  0  0  0  0  0  0
   25.3320   18.2650   13.7480 C   0  0  2  0  0  0  0  0  0  0  0  0
   26.2120   19.4960   13.9420 C   0  0  0  0  0  0  0  0  0  0  0  0
   25.9370   20.1040   15.3090 C   0  0  0  0  0  0  0  0  0  0  0  0
   26.1380   19.0860   16.4080 C   0  0  0  0  0  0  0  0  0  0  0  0
   26.6030   19.3860   17.5030 O   0  0  0  0  0  0  0  0  0  0  0  0
   25.7580   17.7980   16.1280 N   0  0  0  0  0  0  0  0  0  0  0  0
   25.6320   17.2550   14.8690 C   0  0  0  0  0  0  0  0  0  0  0  0
   25.7680   16.0470   14.7000 O   0  0  0  0  0  0  0  0  0  0  0  0
   24.6600   16.6460   11.9840 C   0  0  0  0  0  0  0  0  0  0  0  0
   23.6350   16.2340   12.4910 O   0  0  0  0  0  0  0  0  0  0  0  0
   27.7900   11.5660    9.9510 C   0  0  0  0  0  0  0  0  0  0  0  0
   26.6510   11.0620    9.5170 N   0  0  0  0  0  0  0  0  0  0  0  0
   24.8497    9.5640    8.8806 H   0  0  0  0  0  0  0  0  0  0  0  0
   23.8507    9.4948    7.3893 H   0  0  0  0  0  0  0  0  0  0  0  0
   25.5127    8.8135    7.3893 H   0  0  0  0  0  0  0  0  0  0  0  0
   25.7414   10.8971    6.2980 H   0  0  0  0  0  0  0  0  0  0  0  0
   24.6288   11.7138    7.4791 H   0  0  0  0  0  0  0  0  0  0  0  0
   27.9427   12.5131    6.8041 H   0  0  0  0  0  0  0  0  0  0  0  0
   28.1819   14.8547    4.3615 H   0  0  0  0  0  0  0  0  0  0  0  0
   25.2462   14.0336    8.0991 H   0  0  0  0  0  0  0  0  0  0  0  0
   23.8537   14.6088   10.1065 H   0  0  0  0  0  0  0  0  0  0  0  0
   28.1908   17.0177    9.2590 H   0  0  0  0  0  0  0  0  0  0  0  0
   27.5844   17.5315   12.2158 H   0  0  0  0  0  0  0  0  0  0  0  0
   26.8806   18.8085   11.2528 H   0  0  0  0  0  0  0  0  0  0  0  0
   24.2774   18.5711   13.8124 H   0  0  0  0  0  0  0  0  0  0  0  0
   27.2706   19.2043   13.8764 H   0  0  0  0  0  0  0  0  0  0  0  0
   25.9869   20.2354   13.1593 H   0  0  0  0  0  0  0  0  0  0  0  0
   26.6234   20.9481   15.4714 H   0  0  0  0  0  0  0  0  0  0  0  0
   24.8915   20.4450   15.3357 H   0  0  0  0  0  0  0  0  0  0  0  0
   25.5490   17.1843   16.9284 H   0  0  0  0  0  0  0  0  0  0  0  0
   28.1534   11.4941   10.9867 H   0  0  0  0  0  0  0  0  0  0  0  0
  1  2  1  0
  2  3  1  0
  3  4  2  0
  4  5  1  0
  5  6  1  0
  6  7  2  0
  6  8  2  0
  6  9  1  0
  9 10  1  0
 10 11  2  0
 11 12  1  0
 12 13  1  0
 13 14  2  0
 14 15  1  0
 15 16  2  0
 16 17  1  0
 17 18  2  0
 18 19  1  0
 19 20  2  0
 19 21  1  0
 21 22  1  0
 22 23  1  0
 23 24  1  0
 24 25  1  0
 25 26  1  0
 26 27  2  0
 26 28  1  0
 28 29  1  0
 29 30  2  0
 22 31  1  0
 31 32  2  0
  5 33  1  0
 33 34  2  0
 34  3  1  0
 14 10  1  0
 20 15  1  0
 29 23  1  0
 31 18  1  0
  1 35  1  0
  1 36  1  0
  1 37  1  0
  2 38  1  0
  2 39  1  0
  4 40  1  0
 12 41  1  0
 16 42  1  0
 17 43  1  0
 20 44  1  0
 21 45  1  0
 21 46  1  0
 23 47  1  1
 24 48  1  0
 24 49  1  0
 25 50  1  0
 25 51  1  0
 28 52  1  0
 33 53  1  0
M  END
>  <meeko>  (839) 
{"is_sidechain": [true], "free_energy": -11.33, "intermolecular_energy": 0.0, "internal_energy": -11.33, "cluster_size": 14, "cluster_id": 1, "rank_in_cluster": 1}

>  <_RMSD_MCS_to_ref>  (839) 
1.9827495263422779

$$$$
ligand
     RDKit          3D

 57 61  0  0  0  0  0  0  0  0999 V2000
   24.8540    9.4020    7.6050 C   0  0  0  0  0  0  0  0  0  0  0  0
   25.5230   10.7550    7.4270 C   0  0  0  0  0  0  0  0  0  0  0  0
   24.7320   11.6640    6.5540 C   0  0  0  0  0  0  0  0  0  0  0  0
   24.9200   11.9620    5.2190 C   0  0  0  0  0  0  0  0  0  0  0  0
   23.9560   12.8870    4.9440 N   0  0  0  0  0  0  0  0  0  0  0  0
   23.6490   13.6160    3.4700 S   0  0  0  0  0  6  0  0  0  0  0  0
   24.2270   12.7980    2.4250 O   0  0  0  0  0  0  0  0  0  0  0  0
   22.2250   13.9070    3.5100 O   0  0  0  0  0  0  0  0  0  0  0  0
   24.3670   15.1650    3.3190 C   0  0  0  0  0  0  0  0  0  0  0  0
   24.7250   15.7290    2.1080 C   0  0  0  0  0  0  0  0  0  0  0  0
   25.0820   17.0090    2.3830 N   0  0  0  0  0  0  0  0  0  0  0  0
   24.9470   17.3270    3.6790 N   0  0  0  0  0  0  0  0  0  0  0  0
   24.6040   16.1790    4.2780 C   0  0  0  0  0  0  0  0  0  0  0  0
   24.5000   16.2340    5.6490 N   0  0  0  0  0  0  0  0  0  0  0  0
   25.2490   15.4790    6.5160 C   0  0  0  0  0  0  0  0  0  0  0  0
   26.1110   14.6810    6.1740 O   0  0  0  0  0  0  0  0  0  0  0  0
   24.9880   15.7080    7.9620 C   0  0  0  0  0  0  0  0  0  0  0  0
   23.9600   15.0110    8.6390 C   0  0  0  0  0  0  0  0  0  0  0  0
   23.7430   15.2010   10.0110 C   0  0  0  0  0  0  0  0  0  0  0  0
   24.5690   16.0830   10.6840 C   0  0  0  0  0  0  0  0  0  0  0  0
   25.5840   16.7570   10.0050 C   0  0  0  0  0  0  0  0  0  0  0  0
   25.8250   16.5890    8.6550 C   0  0  0  0  0  0  0  0  0  0  0  0
   26.3040   17.5910   10.9720 C   0  0  0  0  0  0  0  0  0  0  0  0
   27.2900   18.2570   10.7280 O   0  0  0  0  0  0  0  0  0  0  0  0
   25.6650   17.4330   12.1920 N   0  0  0  0  0  0  0  0  0  0  0  0
   26.2220   17.9560   13.4360 C   0  0  2  0  0  0  0  0  0  0  0  0
   25.5800   17.2780   14.6480 C   0  0  0  0  0  0  0  0  0  0  0  0
   26.2650   17.7430   15.9220 C   0  0  0  0  0  0  0  0  0  0  0  0
   26.2270   19.2460   16.0450 C   0  0  0  0  0  0  0  0  0  0  0  0
   26.1520   19.8170   17.1290 O   0  0  0  0  0  0  0  0  0  0  0  0
   26.3110   19.9600   14.8770 N   0  0  0  0  0  0  0  0  0  0  0  0
   26.1280   19.4820   13.5990 C   0  0  0  0  0  0  0  0  0  0  0  0
   25.9330   20.2680   12.6730 O   0  0  0  0  0  0  0  0  0  0  0  0
   24.5810   16.4600   12.1310 C   0  0  0  0  0  0  0  0  0  0  0  0
   23.1600   13.0340    6.0360 C   0  0  0  0  0  0  0  0  0  0  0  0
   23.6370   12.3470    7.0530 N   0  0  0  0  0  0  0  0  0  0  0  0
   24.7464    9.1845    8.6779 H   0  0  0  0  0  0  0  0  0  0  0  0
   23.8606    9.4192    7.1330 H   0  0  0  0  0  0  0  0  0  0  0  0
   25.4708    8.6230    7.1330 H   0  0  0  0  0  0  0  0  0  0  0  0
   25.6392   11.2251    8.4147 H   0  0  0  0  0  0  0  0  0  0  0  0
   26.4977   10.5884    6.9451 H   0  0  0  0  0  0  0  0  0  0  0  0
   25.6746   11.5481    4.5339 H   0  0  0  0  0  0  0  0  0  0  0  0
   24.7211   15.2398    1.1228 H   0  0  0  0  0  0  0  0  0  0  0  0
   25.4220   17.6691    1.6692 H   0  0  0  0  0  0  0  0  0  0  0  0
   23.8127   16.8867    6.0521 H   0  0  0  0  0  0  0  0  0  0  0  0
   23.3218   14.3100    8.0811 H   0  0  0  0  0  0  0  0  0  0  0  0
   22.9395   14.6644   10.5368 H   0  0  0  0  0  0  0  0  0  0  0  0
   26.6401   17.1250    8.1468 H   0  0  0  0  0  0  0  0  0  0  0  0
   27.2945   17.7183   13.3787 H   0  0  0  0  0  0  0  0  0  0  0  0
   24.5128   17.5410   14.6905 H   0  0  0  0  0  0  0  0  0  0  0  0
   25.6901   16.1875   14.5542 H   0  0  0  0  0  0  0  0  0  0  0  0
   25.7517   17.2991   16.7878 H   0  0  0  0  0  0  0  0  0  0  0  0
   27.3169   17.4230   15.8884 H   0  0  0  0  0  0  0  0  0  0  0  0
   26.5351   20.9614   14.9655 H   0  0  0  0  0  0  0  0  0  0  0  0
   24.7925   15.5882   12.7676 H   0  0  0  0  0  0  0  0  0  0  0  0
   23.6182   16.8515   12.4912 H   0  0  0  0  0  0  0  0  0  0  0  0
   22.2442   13.6426    6.0659 H   0  0  0  0  0  0  0  0  0  0  0  0
  1  2  1  0
  2  3  1  0
  3  4  2  0
  4  5  1  0
  5  6  1  0
  6  7  2  0
  6  8  2  0
  6  9  1  0
  9 10  2  0
 10 11  1  0
 11 12  1  0
 12 13  2  0
 13 14  1  0
 14 15  1  0
 15 16  2  0
 15 17  1  0
 17 18  2  0
 18 19  1  0
 19 20  2  0
 20 21  1  0
 21 22  2  0
 21 23  1  0
 23 24  2  0
 23 25  1  0
 25 26  1  0
 26 27  1  0
 27 28  1  0
 28 29  1  0
 29 30  2  0
 29 31  1  0
 31 32  1  0
 32 33  2  0
 25 34  1  0
  5 35  1  0
 35 36  2  0
 36  3  1  0
 13  9  1  0
 22 17  1  0
 32 26  1  0
 34 20  1  0
  1 37  1  0
  1 38  1  0
  1 39  1  0
  2 40  1  0
  2 41  1  0
  4 42  1  0
 10 43  1  0
 11 44  1  0
 14 45  1  0
 18 46  1  0
 19 47  1  0
 22 48  1  0
 26 49  1  6
 27 50  1  0
 27 51  1  0
 28 52  1  0
 28 53  1  0
 31 54  1  0
 34 55  1  0
 34 56  1  0
 35 57  1  0
M  END
>  <meeko>  (840) 
{"is_sidechain": [true], "free_energy": -11.32, "intermolecular_energy": 0.0, "internal_energy": -11.32, "cluster_size": 8, "cluster_id": 1, "rank_in_cluster": 1}

>  <_RMSD_MCS_to_ref>  (840) 
1.3805766106152082

$$$$
ligand
     RDKit          3D

 61 65  0  0  0  0  0  0  0  0999 V2000
   24.8540    9.4020    7.6050 C   0  0  0  0  0  0  0  0  0  0  0  0
   25.5230   10.7550    7.4270 C   0  0  0  0  0  0  0  0  0  0  0  0
   24.9760   11.5040    6.2640 C   0  0  0  0  0  0  0  0  0  0  0  0
   25.0850   12.8490    5.9690 C   0  0  0  0  0  0  0  0  0  0  0  0
   24.3830   12.9950    4.8080 N   0  0  0  0  0  0  0  0  0  0  0  0
   24.3230   14.3700    3.8480 S   0  0  0  0  0  6  0  0  0  0  0  0
   25.2190   14.1060    2.7370 O   0  0  0  0  0  0  0  0  0  0  0  0
   22.9220   14.6870    3.6630 O   0  0  0  0  0  0  0  0  0  0  0  0
   25.0460   15.7410    4.7130 C   0  0  0  0  0  0  0  0  0  0  0  0
   24.7270   17.0860    4.7360 C   0  0  0  0  0  0  0  0  0  0  0  0
   25.5980   17.8340    5.5790 C   0  0  0  0  0  0  0  0  0  0  0  0
   26.5370   17.0230    6.1920 C   0  0  0  0  0  0  0  0  0  0  0  0
   26.3950   15.3960    5.7050 S   0  0  0  0  0  0  0  0  0  0  0  0
   27.5990   17.5040    7.1480 C   0  0  2  0  0  0  0  0  0  0  0  0
   27.2770   17.1170    8.6240 C   0  0  0  0  0  0  0  0  0  0  0  0
   28.1440   16.8420    9.4490 O   0  0  0  0  0  0  0  0  0  0  0  0
   25.9130   17.1950    8.8820 N   0  0  0  0  0  0  0  0  0  0  0  0
   25.2270   16.9390   10.0810 C   0  0  0  0  0  0  0  0  0  0  0  0
   24.2250   15.9640   10.0460 C   0  0  0  0  0  0  0  0  0  0  0  0
   23.4940   15.6550   11.1940 C   0  0  0  0  0  0  0  0  0  0  0  0
   23.7630   16.3150   12.3920 C   0  0  0  0  0  0  0  0  0  0  0  0
   24.7720   17.2860   12.4560 C   0  0  0  0  0  0  0  0  0  0  0  0
   25.0760   18.0450   13.7380 C   0  0  1  0  0  0  0  0  0  0  0  0
   26.2750   17.4070   14.4490 C   0  0  0  0  0  0  0  0  0  0  0  0
   26.5350   18.1210   15.7640 C   0  0  0  0  0  0  0  0  0  0  0  0
   26.7600   19.5960   15.5460 C   0  0  0  0  0  0  0  0  0  0  0  0
   27.4310   20.2800   16.3130 O   0  0  0  0  0  0  0  0  0  0  0  0
   26.1230   20.1570   14.4680 N   0  0  0  0  0  0  0  0  0  0  0  0
   25.3160   19.5420   13.5370 C   0  0  0  0  0  0  0  0  0  0  0  0
   24.7990   20.2120   12.6470 O   0  0  0  0  0  0  0  0  0  0  0  0
   25.4920   17.5950   11.2850 C   0  0  0  0  0  0  0  0  0  0  0  0
   27.7910   18.9940    7.0210 N   0  0  0  0  0  0  0  0  0  0  0  0
   26.4810   19.6970    7.0060 C   0  0  0  0  0  0  0  0  0  0  0  0
   25.5880   19.3140    5.8070 C   0  0  0  0  0  0  0  0  0  0  0  0
   23.9230   11.7810    4.4090 C   0  0  0  0  0  0  0  0  0  0  0  0
   24.2580   10.8520    5.2800 N   0  0  0  0  0  0  0  0  0  0  0  0
   24.7464    9.1845    8.6779 H   0  0  0  0  0  0  0  0  0  0  0  0
   23.8606    9.4192    7.1330 H   0  0  0  0  0  0  0  0  0  0  0  0
   25.4708    8.6230    7.1330 H   0  0  0  0  0  0  0  0  0  0  0  0
   25.3650   11.3508    8.3381 H   0  0  0  0  0  0  0  0  0  0  0  0
   26.5934   10.5807    7.2430 H   0  0  0  0  0  0  0  0  0  0  0  0
   25.6163   13.6250    6.5396 H   0  0  0  0  0  0  0  0  0  0  0  0
   23.8952   17.5282    4.1680 H   0  0  0  0  0  0  0  0  0  0  0  0
   28.5376   16.9996    6.8747 H   0  0  0  0  0  0  0  0  0  0  0  0
   25.3253   17.4793    8.0853 H   0  0  0  0  0  0  0  0  0  0  0  0
   24.0111   15.4359    9.1051 H   0  0  0  0  0  0  0  0  0  0  0  0
   22.7048   14.8899   11.1534 H   0  0  0  0  0  0  0  0  0  0  0  0
   23.1799   16.0724   13.2926 H   0  0  0  0  0  0  0  0  0  0  0  0
   24.1733   17.9675   14.3618 H   0  0  0  0  0  0  0  0  0  0  0  0
   26.0603   16.3463   14.6460 H   0  0  0  0  0  0  0  0  0  0  0  0
   27.1646   17.4931   13.8077 H   0  0  0  0  0  0  0  0  0  0  0  0
   25.6665   17.9840   16.4250 H   0  0  0  0  0  0  0  0  0  0  0  0
   27.4398   17.6934   16.2206 H   0  0  0  0  0  0  0  0  0  0  0  0
   26.2670   21.1686   14.3384 H   0  0  0  0  0  0  0  0  0  0  0  0
   26.2760   18.3658   11.3197 H   0  0  0  0  0  0  0  0  0  0  0  0
   28.3463   19.3320    7.8200 H   0  0  0  0  0  0  0  0  0  0  0  0
   25.9431   19.4499    7.9332 H   0  0  0  0  0  0  0  0  0  0  0  0
   26.6932   20.7729    6.9195 H   0  0  0  0  0  0  0  0  0  0  0  0
   24.5568   19.6396    6.0085 H   0  0  0  0  0  0  0  0  0  0  0  0
   25.9805   19.8091    4.9065 H   0  0  0  0  0  0  0  0  0  0  0  0
   23.3507   11.5993    3.4873 H   0  0  0  0  0  0  0  0  0  0  0  0
  1  2  1  0
  2  3  1  0
  3  4  2  0
  4  5  1  0
  5  6  1  0
  6  7  2  0
  6  8  2  0
  6  9  1  0
  9 10  2  0
 10 11  1  0
 11 12  2  0
 12 13  1  0
 12 14  1  0
 14 15  1  0
 15 16  2  0
 15 17  1  0
 17 18  1  0
 18 19  2  0
 19 20  1  0
 20 21  2  0
 21 22  1  0
 22 23  1  0
 23 24  1  0
 24 25  1  0
 25 26  1  0
 26 27  2  0
 26 28  1  0
 28 29  1  0
 29 30  2  0
 22 31  2  0
 14 32  1  0
 32 33  1  0
 33 34  1  0
  5 35  1  0
 35 36  2  0
 36  3  1  0
 13  9  1  0
 31 18  1  0
 34 11  1  0
 29 23  1  0
  1 37  1  0
  1 38  1  0
  1 39  1  0
  2 40  1  0
  2 41  1  0
  4 42  1  0
 10 43  1  0
 14 44  1  6
 17 45  1  0
 19 46  1  0
 20 47  1  0
 21 48  1  0
 23 49  1  1
 24 50  1  0
 24 51  1  0
 25 52  1  0
 25 53  1  0
 28 54  1  0
 31 55  1  0
 32 56  1  0
 33 57  1  0
 33 58  1  0
 34 59  1  0
 34 60  1  0
 35 61  1  0
M  END
>  <meeko>  (841) 
{"is_sidechain": [true], "free_energy": -11.32, "intermolecular_energy": 0.0, "internal_energy": -11.32, "cluster_size": 20, "cluster_id": 1, "rank_in_cluster": 1}

>  <_RMSD_MCS_to_ref>  (841) 
1.0595280199220782

$$$$
ligand
     RDKit          3D

 56 60  0  0  0  0  0  0  0  0999 V2000
   24.8540    9.4020    7.6050 C   0  0  0  0  0  0  0  0  0  0  0  0
   25.5230   10.7550    7.4270 C   0  0  0  0  0  0  0  0  0  0  0  0
   26.9980   10.6800    7.6090 C   0  0  0  0  0  0  0  0  0  0  0  0
   27.9050   11.7070    7.7920 C   0  0  0  0  0  0  0  0  0  0  0  0
   29.1050   11.0720    7.9420 N   0  0  0  0  0  0  0  0  0  0  0  0
   30.6190   11.8140    7.9550 S   0  0  0  0  0  6  0  0  0  0  0  0
   31.5430   10.7510    8.3050 O   0  0  0  0  0  0  0  0  0  0  0  0
   30.6980   12.5050    6.6810 O   0  0  0  0  0  0  0  0  0  0  0  0
   30.5650   12.9060    9.1640 O   0  0  0  0  0  0  0  0  0  0  0  0
   29.5600   13.8330    9.2770 C   0  0  0  0  0  0  0  0  0  0  0  0
   28.5380   13.4860   10.1780 C   0  0  0  0  0  0  0  0  0  0  0  0
   27.4520   14.3360   10.4040 C   0  0  0  0  0  0  0  0  0  0  0  0
   27.4000   15.5370    9.7140 C   0  0  0  0  0  0  0  0  0  0  0  0
   28.4170   15.8810    8.8150 C   0  0  0  0  0  0  0  0  0  0  0  0
   29.5050   15.0490    8.5940 C   0  0  0  0  0  0  0  0  0  0  0  0
   28.1760   17.2340    8.2160 C   0  0  0  0  0  0  0  0  0  0  0  0
   26.6760   17.4220    8.4950 C   0  0  0  0  0  0  0  0  0  0  0  0
   26.3670   16.6370    9.7840 C   0  0  1  0  0  0  0  0  0  0  0  0
   24.9190   16.1720    9.8830 C   0  0  0  0  0  0  0  0  0  0  0  0
   24.5960   16.3520   11.3380 C   0  0  0  0  0  0  0  0  0  0  0  0
   23.5870   15.9230   11.8770 O   0  0  0  0  0  0  0  0  0  0  0  0
   25.5730   17.1010   11.9320 N   0  0  0  0  0  0  0  0  0  0  0  0
   25.4030   17.6870   13.2540 C   0  0  1  0  0  0  0  0  0  0  0  0
   26.2820   17.0660   14.3360 C   0  0  0  0  0  0  0  0  0  0  0  0
   25.9900   17.7460   15.6670 C   0  0  0  0  0  0  0  0  0  0  0  0
   26.1910   19.2420   15.5770 C   0  0  0  0  0  0  0  0  0  0  0  0
   26.5070   19.9190   16.5490 O   0  0  0  0  0  0  0  0  0  0  0  0
   25.9430   19.8230   14.3580 N   0  0  0  0  0  0  0  0  0  0  0  0
   25.6540   19.1980   13.1670 C   0  0  0  0  0  0  0  0  0  0  0  0
   25.5540   19.8460   12.1260 O   0  0  0  0  0  0  0  0  0  0  0  0
   26.5340   17.4800   11.0350 C   0  0  0  0  0  0  0  0  0  0  0  0
   27.3840   18.3410   11.2110 O   0  0  0  0  0  0  0  0  0  0  0  0
   28.9250    9.7370    7.7680 C   0  0  0  0  0  0  0  0  0  0  0  0
   27.6490    9.4620    7.5900 N   0  0  0  0  0  0  0  0  0  0  0  0
   24.7464    9.1845    8.6779 H   0  0  0  0  0  0  0  0  0  0  0  0
   23.8606    9.4192    7.1330 H   0  0  0  0  0  0  0  0  0  0  0  0
   25.4708    8.6230    7.1330 H   0  0  0  0  0  0  0  0  0  0  0  0
   25.3093   11.1254    6.4135 H   0  0  0  0  0  0  0  0  0  0  0  0
   25.1218   11.4340    8.1938 H   0  0  0  0  0  0  0  0  0  0  0  0
   27.7058   12.7886    7.8122 H   0  0  0  0  0  0  0  0  0  0  0  0
   28.5943   12.5276   10.7150 H   0  0  0  0  0  0  0  0  0  0  0  0
   26.6575   14.0586   11.1124 H   0  0  0  0  0  0  0  0  0  0  0  0
   30.3049   15.3406    7.8974 H   0  0  0  0  0  0  0  0  0  0  0  0
   28.7786   18.0081    8.7136 H   0  0  0  0  0  0  0  0  0  0  0  0
   28.4507   17.3126    7.1537 H   0  0  0  0  0  0  0  0  0  0  0  0
   26.4468   18.4886    8.6359 H   0  0  0  0  0  0  0  0  0  0  0  0
   26.0672   17.0592    7.6537 H   0  0  0  0  0  0  0  0  0  0  0  0
   24.2625   16.7915    9.2543 H   0  0  0  0  0  0  0  0  0  0  0  0
   24.7745   15.1385    9.5351 H   0  0  0  0  0  0  0  0  0  0  0  0
   24.3687   17.4750   13.5628 H   0  0  0  0  0  0  0  0  0  0  0  0
   26.0634   15.9909   14.4159 H   0  0  0  0  0  0  0  0  0  0  0  0
   27.3420   17.2019   14.0753 H   0  0  0  0  0  0  0  0  0  0  0  0
   24.9476   17.5413   15.9526 H   0  0  0  0  0  0  0  0  0  0  0  0
   26.6860   17.3475   16.4199 H   0  0  0  0  0  0  0  0  0  0  0  0
   25.9775   20.8521   14.3320 H   0  0  0  0  0  0  0  0  0  0  0  0
   29.7321    8.9897    7.7748 H   0  0  0  0  0  0  0  0  0  0  0  0
  1  2  1  0
  2  3  1  0
  3  4  2  0
  4  5  1  0
  5  6  1  0
  6  7  2  0
  6  8  2  0
  6  9  1  0
  9 10  1  0
 10 11  2  0
 11 12  1  0
 12 13  2  0
 13 14  1  0
 14 15  2  0
 14 16  1  0
 16 17  1  0
 18 17  1  6
 18 19  1  0
 19 20  1  0
 20 21  2  0
 20 22  1  0
 22 23  1  0
 23 24  1  0
 24 25  1  0
 25 26  1  0
 26 27  2  0
 26 28  1  0
 28 29  1  0
 29 30  2  0
 22 31  1  0
 31 32  2  0
  5 33  1  0
 33 34  2  0
 34  3  1  0
 15 10  1  0
 31 18  1  0
 18 13  1  0
 29 23  1  0
  1 35  1  0
  1 36  1  0
  1 37  1  0
  2 38  1  0
  2 39  1  0
  4 40  1  0
 11 41  1  0
 12 42  1  0
 15 43  1  0
 16 44  1  0
 16 45  1  0
 17 46  1  0
 17 47  1  0
 19 48  1  0
 19 49  1  0
 23 50  1  1
 24 51  1  0
 24 52  1  0
 25 53  1  0
 25 54  1  0
 28 55  1  0
 33 56  1  0
M  END
>  <meeko>  (842) 
{"is_sidechain": [true], "free_energy": -11.32, "intermolecular_energy": 0.0, "internal_energy": -11.32, "cluster_size": 20, "cluster_id": 1, "rank_in_cluster": 1}

>  <_RMSD_MCS_to_ref>  (842) 
1.5453168679019267

$$$$
ligand
     RDKit          3D

 62 67  0  0  0  0  0  0  0  0999 V2000
   24.8710    9.6170    7.7820 C   0  0  0  0  0  0  0  0  0  0  0  0
   25.4240   10.9640    7.3490 C   0  0  0  0  0  0  0  0  0  0  0  0
   24.9250   11.3770    6.0090 C   0  0  0  0  0  0  0  0  0  0  0  0
   25.5700   12.1130    5.0350 C   0  0  0  0  0  0  0  0  0  0  0  0
   24.6640   12.1880    4.0140 N   0  0  0  0  0  0  0  0  0  0  0  0
   24.7620   13.2150    2.6760 S   0  0  0  0  0  6  0  0  0  0  0  0
   23.4530   13.1170    2.0570 O   0  0  0  0  0  0  0  0  0  0  0  0
   25.9550   12.7920    1.9680 O   0  0  0  0  0  0  0  0  0  0  0  0
   24.9580   14.7590    3.1950 O   0  0  0  0  0  0  0  0  0  0  0  0
   25.7850   15.0140    4.2630 C   0  0  0  0  0  0  0  0  0  0  0  0
   25.1840   15.2320    5.4990 C   0  0  0  0  0  0  0  0  0  0  0  0
   25.9970   15.4470    6.6010 C   0  0  0  0  0  0  0  0  0  0  0  0
   25.4640   15.6390    7.9650 C   0  0  0  0  0  0  0  0  0  0  0  0
   24.2930   14.9650    8.4070 C   0  0  0  0  0  0  0  0  0  0  0  0
   23.7810   15.1420    9.6960 C   0  0  0  0  0  0  0  0  0  0  0  0
   24.4620   15.9980   10.5370 C   0  0  0  0  0  0  0  0  0  0  0  0
   25.6140   16.6700   10.1460 C   0  0  0  0  0  0  0  0  0  0  0  0
   26.1250   16.4990    8.8700 C   0  0  0  0  0  0  0  0  0  0  0  0
   26.1070   17.5270   11.2630 C   0  0  0  0  0  0  0  0  0  0  0  0
   25.1960   17.1920   12.3490 N   0  0  0  0  0  0  0  0  0  0  0  0
   25.1780   17.9630   13.5870 C   0  0  2  0  0  0  0  0  0  0  0  0
   25.8710   19.3210   13.4760 C   0  0  0  0  0  0  0  0  0  0  0  0
   25.7400   20.0630   14.7970 C   0  0  0  0  0  0  0  0  0  0  0  0
   26.3030   19.2510   15.9400 C   0  0  0  0  0  0  0  0  0  0  0  0
   26.6840   19.7710   16.9850 O   0  0  0  0  0  0  0  0  0  0  0  0
   26.2920   17.8870   15.7920 N   0  0  0  0  0  0  0  0  0  0  0  0
   25.7610   17.1540   14.7560 C   0  0  0  0  0  0  0  0  0  0  0  0
   25.6770   15.9290   14.8420 O   0  0  0  0  0  0  0  0  0  0  0  0
   24.1620   16.3720   11.9220 C   0  0  0  0  0  0  0  0  0  0  0  0
   23.1720   16.0220   12.5350 O   0  0  0  0  0  0  0  0  0  0  0  0
   27.3480   15.4950    6.4870 N   0  0  0  0  0  0  0  0  0  0  0  0
   27.9220   15.3350    5.2820 C   0  0  0  0  0  0  0  0  0  0  0  0
   29.3060   15.4080    5.1880 C   0  0  0  0  0  0  0  0  0  0  0  0
   29.9710   15.2630    3.9690 C   0  0  0  0  0  0  0  0  0  0  0  0
   29.2420   15.0430    2.8090 C   0  0  0  0  0  0  0  0  0  0  0  0
   27.8530   14.9640    2.8750 C   0  0  0  0  0  0  0  0  0  0  0  0
   27.1790   15.0960    4.1110 C   0  0  0  0  0  0  0  0  0  0  0  0
   23.5230   11.5490    4.3840 C   0  0  0  0  0  0  0  0  0  0  0  0
   23.6470   11.0470    5.5950 N   0  0  0  0  0  0  0  0  0  0  0  0
   24.8498    9.5653    8.8806 H   0  0  0  0  0  0  0  0  0  0  0  0
   23.8505    9.4962    7.3895 H   0  0  0  0  0  0  0  0  0  0  0  0
   25.5122    8.8140    7.3895 H   0  0  0  0  0  0  0  0  0  0  0  0
   25.1245   11.7228    8.0869 H   0  0  0  0  0  0  0  0  0  0  0  0
   26.5185   10.8732    7.2864 H   0  0  0  0  0  0  0  0  0  0  0  0
   26.5824   12.5415    5.0721 H   0  0  0  0  0  0  0  0  0  0  0  0
   24.0886   15.2337    5.5993 H   0  0  0  0  0  0  0  0  0  0  0  0
   23.7748   14.2847    7.7151 H   0  0  0  0  0  0  0  0  0  0  0  0
   22.8712   14.6195   10.0266 H   0  0  0  0  0  0  0  0  0  0  0  0
   27.0389   17.0290    8.5636 H   0  0  0  0  0  0  0  0  0  0  0  0
   27.1458   17.2779   11.5254 H   0  0  0  0  0  0  0  0  0  0  0  0
   26.1191   18.5993   11.0182 H   0  0  0  0  0  0  0  0  0  0  0  0
   24.1171   18.1723   13.7886 H   0  0  0  0  0  0  0  0  0  0  0  0
   26.9356   19.1720   13.2425 H   0  0  0  0  0  0  0  0  0  0  0  0
   25.4004   19.9099   12.6749 H   0  0  0  0  0  0  0  0  0  0  0  0
   26.2876   21.0146   14.7295 H   0  0  0  0  0  0  0  0  0  0  0  0
   24.6721   20.2419   14.9907 H   0  0  0  0  0  0  0  0  0  0  0  0
   26.7351   17.3462   16.5484 H   0  0  0  0  0  0  0  0  0  0  0  0
   29.8948   15.5851    6.1001 H   0  0  0  0  0  0  0  0  0  0  0  0
   31.0686   15.3229    3.9283 H   0  0  0  0  0  0  0  0  0  0  0  0
   29.7576   14.9317    1.8437 H   0  0  0  0  0  0  0  0  0  0  0  0
   27.2736   14.7970    1.9550 H   0  0  0  0  0  0  0  0  0  0  0  0
   22.6218   11.4632    3.7591 H   0  0  0  0  0  0  0  0  0  0  0  0
  1  2  1  0
  2  3  1  0
  3  4  2  0
  4  5  1  0
  5  6  1  0
  6  7  2  0
  6  8  2  0
  6  9  1  0
  9 10  1  0
 10 11  2  0
 11 12  1  0
 12 13  1  0
 13 14  2  0
 14 15  1  0
 15 16  2  0
 16 17  1  0
 17 18  2  0
 17 19  1  0
 19 20  1  0
 20 21  1  0
 21 22  1  0
 22 23  1  0
 23 24  1  0
 24 25  2  0
 24 26  1  0
 26 27  1  0
 27 28  2  0
 20 29  1  0
 29 30  2  0
 12 31  2  0
 31 32  1  0
 32 33  2  0
 33 34  1  0
 34 35  2  0
 35 36  1  0
 36 37  2  0
  5 38  1  0
 38 39  2  0
 39  3  1  0
 37 10  1  0
 18 13  1  0
 27 21  1  0
 37 32  1  0
 29 16  1  0
  1 40  1  0
  1 41  1  0
  1 42  1  0
  2 43  1  0
  2 44  1  0
  4 45  1  0
 11 46  1  0
 14 47  1  0
 15 48  1  0
 18 49  1  0
 19 50  1  0
 19 51  1  0
 21 52  1  1
 22 53  1  0
 22 54  1  0
 23 55  1  0
 23 56  1  0
 26 57  1  0
 33 58  1  0
 34 59  1  0
 35 60  1  0
 36 61  1  0
 38 62  1  0
M  END
>  <meeko>  (843) 
{"is_sidechain": [true], "free_energy": -11.32, "intermolecular_energy": 0.0, "internal_energy": -11.32, "cluster_size": 2, "cluster_id": 2, "rank_in_cluster": 1}

>  <_RMSD_MCS_to_ref>  (843) 
1.8493493308102773

$$$$
ligand
     RDKit          3D

 48 51  0  0  0  0  0  0  0  0999 V2000
   24.8710    9.6160    7.7820 C   0  0  0  0  0  0  0  0  0  0  0  0
   25.4240   10.9650    7.3490 C   0  0  0  0  0  0  0  0  0  0  0  0
   26.7840   11.2170    7.9000 C   0  0  0  0  0  0  0  0  0  0  0  0
   27.1450   11.9120    9.0370 C   0  0  0  0  0  0  0  0  0  0  0  0
   28.5060   11.7970    9.0820 N   0  0  0  0  0  0  0  0  0  0  0  0
   29.5360   12.6500   10.1160 S   0  0  0  0  0  6  0  0  0  0  0  0
   30.8570   12.1580    9.7690 O   0  0  0  0  0  0  0  0  0  0  0  0
   28.9490   12.4480   11.4290 O   0  0  0  0  0  0  0  0  0  0  0  0
   29.3800   14.2140    9.6690 O   0  0  0  0  0  0  0  0  0  0  0  0
   28.2470   14.6660    9.0130 C   0  0  0  0  0  0  0  0  0  0  0  0
   28.1690   14.3720    7.6410 C   0  0  0  0  0  0  0  0  0  0  0  0
   27.0710   14.7830    6.8720 C   0  0  0  0  0  0  0  0  0  0  0  0
   26.0170   15.5060    7.4400 C   0  0  0  0  0  0  0  0  0  0  0  0
   26.1370   15.7920    8.7940 C   0  0  0  0  0  0  0  0  0  0  0  0
   25.2580   16.4910    9.5680 O   0  0  0  0  0  0  0  0  0  0  0  0
   25.8490   16.5040   10.8040 C   0  0  0  0  0  0  0  0  0  0  0  0
   25.2140   17.1920   11.9180 C   0  0  0  0  0  0  0  0  0  0  0  0
   24.1210   17.7530   11.8680 O   0  0  0  0  0  0  0  0  0  0  0  0
   25.9750   17.1680   13.0800 N   0  0  0  0  0  0  0  0  0  0  0  0
   25.6820   18.0750   14.1750 C   0  0  1  0  0  0  0  0  0  0  0  0
   26.3130   17.5810   15.4700 C   0  0  0  0  0  0  0  0  0  0  0  0
   25.9920   18.5530   16.5950 C   0  0  0  0  0  0  0  0  0  0  0  0
   26.4350   19.9560   16.2500 C   0  0  0  0  0  0  0  0  0  0  0  0
   26.8520   20.7400   17.0980 O   0  0  0  0  0  0  0  0  0  0  0  0
   26.3240   20.3290   14.9350 N   0  0  0  0  0  0  0  0  0  0  0  0
   26.2260   19.4780   13.8590 C   0  0  0  0  0  0  0  0  0  0  0  0
   26.5570   19.8470   12.7350 O   0  0  0  0  0  0  0  0  0  0  0  0
   27.0110   15.8690   10.8700 N   0  0  0  0  0  0  0  0  0  0  0  0
   27.2040   15.4070    9.5940 C   0  0  0  0  0  0  0  0  0  0  0  0
   28.9320   11.1390    7.9720 C   0  0  0  0  0  0  0  0  0  0  0  0
   27.9060   10.7490    7.2450 N   0  0  0  0  0  0  0  0  0  0  0  0
   24.8497    9.5640    8.8806 H   0  0  0  0  0  0  0  0  0  0  0  0
   23.8507    9.4948    7.3893 H   0  0  0  0  0  0  0  0  0  0  0  0
   25.5127    8.8135    7.3893 H   0  0  0  0  0  0  0  0  0  0  0  0
   25.4762   10.9907    6.2505 H   0  0  0  0  0  0  0  0  0  0  0  0
   24.7524   11.7457    7.7356 H   0  0  0  0  0  0  0  0  0  0  0  0
   26.4875   12.4380    9.7448 H   0  0  0  0  0  0  0  0  0  0  0  0
   28.9838   13.8094    7.1619 H   0  0  0  0  0  0  0  0  0  0  0  0
   27.0379   14.5320    5.8015 H   0  0  0  0  0  0  0  0  0  0  0  0
   25.1461   15.8285    6.8504 H   0  0  0  0  0  0  0  0  0  0  0  0
   26.7546   16.5003   13.1655 H   0  0  0  0  0  0  0  0  0  0  0  0
   24.5897   18.1163   14.2982 H   0  0  0  0  0  0  0  0  0  0  0  0
   25.9107   16.5877   15.7180 H   0  0  0  0  0  0  0  0  0  0  0  0
   27.4037   17.5145   15.3437 H   0  0  0  0  0  0  0  0  0  0  0  0
   24.9060   18.5528   16.7701 H   0  0  0  0  0  0  0  0  0  0  0  0
   26.5312   18.2302   17.4978 H   0  0  0  0  0  0  0  0  0  0  0  0
   26.3130   21.3393   14.7348 H   0  0  0  0  0  0  0  0  0  0  0  0
   29.9865   10.9576    7.7166 H   0  0  0  0  0  0  0  0  0  0  0  0
  1  2  1  0
  2  3  1  0
  3  4  2  0
  4  5  1  0
  5  6  1  0
  6  7  2  0
  6  8  2  0
  6  9  1  0
  9 10  1  0
 10 11  2  0
 11 12  1  0
 12 13  2  0
 13 14  1  0
 14 15  1  0
 15 16  1  0
 16 17  1  0
 17 18  2  0
 17 19  1  0
 19 20  1  0
 20 21  1  0
 21 22  1  0
 22 23  1  0
 23 24  2  0
 23 25  1  0
 25 26  1  0
 26 27  2  0
 16 28  2  0
 28 29  1  0
  5 30  1  0
 30 31  2  0
 31  3  1  0
 29 10  1  0
 29 14  2  0
 26 20  1  0
  1 32  1  0
  1 33  1  0
  1 34  1  0
  2 35  1  0
  2 36  1  0
  4 37  1  0
 11 38  1  0
 12 39  1  0
 13 40  1  0
 19 41  1  0
 20 42  1  1
 21 43  1  0
 21 44  1  0
 22 45  1  0
 22 46  1  0
 25 47  1  0
 30 48  1  0
M  END
>  <meeko>  (844) 
{"is_sidechain": [true], "free_energy": -11.32, "intermolecular_energy": 0.0, "internal_energy": -11.32, "cluster_size": 15, "cluster_id": 1, "rank_in_cluster": 1}

>  <_RMSD_MCS_to_ref>  (844) 
1.0689140387431633

$$$$
ligand
     RDKit          3D

 51 54  0  0  0  0  0  0  0  0999 V2000
   24.8710    9.6160    7.7820 C   0  0  0  0  0  0  0  0  0  0  0  0
   25.4240   10.9650    7.3490 C   0  0  0  0  0  0  0  0  0  0  0  0
   26.7700   11.2320    7.9270 C   0  0  0  0  0  0  0  0  0  0  0  0
   27.1020   11.9510    9.0590 C   0  0  0  0  0  0  0  0  0  0  0  0
   28.4610   11.8460    9.1350 N   0  0  0  0  0  0  0  0  0  0  0  0
   29.4550   12.7320   10.1690 S   0  0  0  0  0  6  0  0  0  0  0  0
   28.9450   12.4430   11.4980 O   0  0  0  0  0  0  0  0  0  0  0  0
   30.8070   12.3800    9.7750 O   0  0  0  0  0  0  0  0  0  0  0  0
   29.1820   14.3040    9.8060 O   0  0  0  0  0  0  0  0  0  0  0  0
   28.2380   14.5830    8.8500 C   0  0  0  0  0  0  0  0  0  0  0  0
   28.4790   14.2020    7.5280 C   0  0  0  0  0  0  0  0  0  0  0  0
   27.5230   14.4590    6.5510 C   0  0  0  0  0  0  0  0  0  0  0  0
   26.3230   15.0830    6.8960 C   0  0  0  0  0  0  0  0  0  0  0  0
   26.0650   15.4530    8.2280 C   0  0  0  0  0  0  0  0  0  0  0  0
   24.8720   16.0730    8.6140 C   0  0  0  0  0  0  0  0  0  0  0  0
   24.5710   16.4470    9.8770 N   0  0  0  0  0  0  0  0  0  0  0  0
   25.5170   16.1890   10.8190 C   0  0  0  0  0  0  0  0  0  0  0  0
   25.1880   16.6000   12.2200 C   0  0  0  0  0  0  0  0  0  0  0  0
   24.3480   16.0050   12.8880 O   0  0  0  0  0  0  0  0  0  0  0  0
   25.8910   17.6910   12.6780 N   0  0  0  0  0  0  0  0  0  0  0  0
   25.6060   18.3330   13.9460 C   0  0  1  0  0  0  0  0  0  0  0  0
   26.4160   17.7240   15.0870 C   0  0  0  0  0  0  0  0  0  0  0  0
   26.0880   18.4450   16.3850 C   0  0  0  0  0  0  0  0  0  0  0  0
   26.3240   19.9320   16.2610 C   0  0  0  0  0  0  0  0  0  0  0  0
   26.7010   20.6190   17.2060 O   0  0  0  0  0  0  0  0  0  0  0  0
   26.0610   20.4960   15.0390 N   0  0  0  0  0  0  0  0  0  0  0  0
   25.9310   19.8270   13.8450 C   0  0  0  0  0  0  0  0  0  0  0  0
   26.0490   20.4230   12.7750 O   0  0  0  0  0  0  0  0  0  0  0  0
   26.7330   15.5750   10.5500 C   0  0  0  0  0  0  0  0  0  0  0  0
   27.0270   15.1980    9.2290 C   0  0  0  0  0  0  0  0  0  0  0  0
   28.9160   11.1680    8.0500 C   0  0  0  0  0  0  0  0  0  0  0  0
   27.9090   10.7560    7.3090 N   0  0  0  0  0  0  0  0  0  0  0  0
   24.8497    9.5640    8.8806 H   0  0  0  0  0  0  0  0  0  0  0  0
   23.8507    9.4948    7.3893 H   0  0  0  0  0  0  0  0  0  0  0  0
   25.5127    8.8135    7.3893 H   0  0  0  0  0  0  0  0  0  0  0  0
   25.4999   10.9812    6.2517 H   0  0  0  0  0  0  0  0  0  0  0  0
   24.7387   11.7442    7.7140 H   0  0  0  0  0  0  0  0  0  0  0  0
   26.4261   12.4857    9.7426 H   0  0  0  0  0  0  0  0  0  0  0  0
   29.4210   13.7008    7.2607 H   0  0  0  0  0  0  0  0  0  0  0  0
   27.7126   14.1705    5.5066 H   0  0  0  0  0  0  0  0  0  0  0  0
   25.5720   15.2873    6.1186 H   0  0  0  0  0  0  0  0  0  0  0  0
   24.1241   16.2706    7.8320 H   0  0  0  0  0  0  0  0  0  0  0  0
   26.6521   18.0673   12.0949 H   0  0  0  0  0  0  0  0  0  0  0  0
   24.5387   18.1818   14.1652 H   0  0  0  0  0  0  0  0  0  0  0  0
   26.1644   16.6578   15.1865 H   0  0  0  0  0  0  0  0  0  0  0  0
   27.4894   17.8297   14.8708 H   0  0  0  0  0  0  0  0  0  0  0  0
   25.0314   18.2694   16.6354 H   0  0  0  0  0  0  0  0  0  0  0  0
   26.7452   18.0536   17.1755 H   0  0  0  0  0  0  0  0  0  0  0  0
   25.9502   21.5197   15.0132 H   0  0  0  0  0  0  0  0  0  0  0  0
   27.4547   15.3867   11.3585 H   0  0  0  0  0  0  0  0  0  0  0  0
   29.9771   10.9883    7.8223 H   0  0  0  0  0  0  0  0  0  0  0  0
  1  2  1  0
  2  3  1  0
  3  4  2  0
  4  5  1  0
  5  6  1  0
  6  7  2  0
  6  8  2  0
  6  9  1  0
  9 10  1  0
 10 11  2  0
 11 12  1  0
 12 13  2  0
 13 14  1  0
 14 15  2  0
 15 16  1  0
 16 17  2  0
 17 18  1  0
 18 19  2  0
 18 20  1  0
 20 21  1  0
 21 22  1  0
 22 23  1  0
 23 24  1  0
 24 25  2  0
 24 26  1  0
 26 27  1  0
 27 28  2  0
 17 29  1  0
 29 30  2  0
  5 31  1  0
 31 32  2  0
 32  3  1  0
 30 10  1  0
 30 14  1  0
 27 21  1  0
  1 33  1  0
  1 34  1  0
  1 35  1  0
  2 36  1  0
  2 37  1  0
  4 38  1  0
 11 39  1  0
 12 40  1  0
 13 41  1  0
 15 42  1  0
 20 43  1  0
 21 44  1  1
 22 45  1  0
 22 46  1  0
 23 47  1  0
 23 48  1  0
 26 49  1  0
 29 50  1  0
 31 51  1  0
M  END
>  <meeko>  (845) 
{"is_sidechain": [true], "free_energy": -11.32, "intermolecular_energy": 0.0, "internal_energy": -11.32, "cluster_size": 16, "cluster_id": 1, "rank_in_cluster": 1}

>  <_RMSD_MCS_to_ref>  (845) 
0.9635443828790538

$$$$
ligand
     RDKit          3D

 55 59  0  0  0  0  0  0  0  0999 V2000
   24.8540    9.4020    7.6050 C   0  0  0  0  0  0  0  0  0  0  0  0
   25.5230   10.7550    7.4270 C   0  0  0  0  0  0  0  0  0  0  0  0
   25.1150   11.4210    6.1600 C   0  0  0  0  0  0  0  0  0  0  0  0
   25.6200   12.5670    5.5790 C   0  0  0  0  0  0  0  0  0  0  0  0
   24.9090   12.6970    4.4200 N   0  0  0  0  0  0  0  0  0  0  0  0
   24.9150   14.0430    3.4060 S   0  0  0  0  0  6  0  0  0  0  0  0
   26.3180   14.2910    3.1280 O   0  0  0  0  0  0  0  0  0  0  0  0
   23.9800   13.7150    2.3460 O   0  0  0  0  0  0  0  0  0  0  0  0
   24.3170   15.2750    4.2890 O   0  0  0  0  0  0  0  0  0  0  0  0
   24.9370   15.7470    5.4180 C   0  0  0  0  0  0  0  0  0  0  0  0
   26.1750   16.3610    5.1930 C   0  0  0  0  0  0  0  0  0  0  0  0
   26.9100   16.8910    6.2560 C   0  0  0  0  0  0  0  0  0  0  0  0
   26.4190   16.7970    7.5540 C   0  0  0  0  0  0  0  0  0  0  0  0
   25.1800   16.1940    7.7750 C   0  0  0  0  0  0  0  0  0  0  0  0
   24.4290   15.6670    6.7170 C   0  0  0  0  0  0  0  0  0  0  0  0
   24.7320   16.1800    9.0990 N   0  0  0  0  0  0  0  0  0  0  0  0
   23.5290   15.8080    9.6350 C   0  0  0  0  0  0  0  0  0  0  0  0
   23.5080   15.9640   10.9430 N   0  0  0  0  0  0  0  0  0  0  0  0
   24.7660   16.4430   11.2750 C   0  0  0  0  0  0  0  0  0  0  0  0
   25.1750   16.7140   12.6520 C   0  0  0  0  0  0  0  0  0  0  0  0
   25.5610   15.8430   13.4260 O   0  0  0  0  0  0  0  0  0  0  0  0
   25.0670   18.0390   12.9920 N   0  0  0  0  0  0  0  0  0  0  0  0
   25.2660   18.5170   14.3460 C   0  0  1  0  0  0  0  0  0  0  0  0
   26.5080   17.9070   14.9870 C   0  0  0  0  0  0  0  0  0  0  0  0
   26.6740   18.4550   16.3960 C   0  0  0  0  0  0  0  0  0  0  0  0
   26.7300   19.9640   16.3940 C   0  0  0  0  0  0  0  0  0  0  0  0
   27.3970   20.5990   17.2060 O   0  0  0  0  0  0  0  0  0  0  0  0
   25.9620   20.6050   15.4560 N   0  0  0  0  0  0  0  0  0  0  0  0
   25.4060   20.0430   14.3320 C   0  0  0  0  0  0  0  0  0  0  0  0
   25.0300   20.7470   13.3970 O   0  0  0  0  0  0  0  0  0  0  0  0
   25.5310   16.5780   10.1330 C   0  0  0  0  0  0  0  0  0  0  0  0
   26.9360   16.9640    9.8950 C   0  0  0  0  0  0  0  0  0  0  0  0
   27.1600   17.3910    8.5360 O   0  0  0  0  0  0  0  0  0  0  0  0
   23.9680   11.7200    4.3640 C   0  0  0  0  0  0  0  0  0  0  0  0
   24.0830   10.9110    5.3970 N   0  0  0  0  0  0  0  0  0  0  0  0
   24.7464    9.1845    8.6779 H   0  0  0  0  0  0  0  0  0  0  0  0
   23.8606    9.4192    7.1330 H   0  0  0  0  0  0  0  0  0  0  0  0
   25.4708    8.6230    7.1330 H   0  0  0  0  0  0  0  0  0  0  0  0
   25.2454   11.4015    8.2725 H   0  0  0  0  0  0  0  0  0  0  0  0
   26.6102   10.5919    7.3882 H   0  0  0  0  0  0  0  0  0  0  0  0
   26.4138   13.2252    5.9620 H   0  0  0  0  0  0  0  0  0  0  0  0
   26.5726   16.4266    4.1695 H   0  0  0  0  0  0  0  0  0  0  0  0
   27.8759   17.3821    6.0669 H   0  0  0  0  0  0  0  0  0  0  0  0
   23.4528   15.1966    6.9061 H   0  0  0  0  0  0  0  0  0  0  0  0
   22.6827   15.4254    9.0456 H   0  0  0  0  0  0  0  0  0  0  0  0
   24.8353   18.7211   12.2558 H   0  0  0  0  0  0  0  0  0  0  0  0
   24.3916   18.2143   14.9409 H   0  0  0  0  0  0  0  0  0  0  0  0
   26.3987   16.8133   15.0297 H   0  0  0  0  0  0  0  0  0  0  0  0
   27.3935   18.1645   14.3873 H   0  0  0  0  0  0  0  0  0  0  0  0
   25.8218   18.1287   17.0102 H   0  0  0  0  0  0  0  0  0  0  0  0
   27.6194   18.0727   16.8084 H   0  0  0  0  0  0  0  0  0  0  0  0
   25.7841   21.6079   15.6093 H   0  0  0  0  0  0  0  0  0  0  0  0
   27.1965   17.7898   10.5734 H   0  0  0  0  0  0  0  0  0  0  0  0
   27.5652   16.0809   10.0799 H   0  0  0  0  0  0  0  0  0  0  0  0
   23.2156   11.6184    3.5681 H   0  0  0  0  0  0  0  0  0  0  0  0
  1  2  1  0
  2  3  1  0
  3  4  2  0
  4  5  1  0
  5  6  1  0
  6  7  2  0
  6  8  2  0
  6  9  1  0
  9 10  1  0
 10 11  2  0
 11 12  1  0
 12 13  2  0
 13 14  1  0
 14 15  2  0
 14 16  1  0
 16 17  1  0
 17 18  2  0
 18 19  1  0
 19 20  1  0
 20 21  2  0
 20 22  1  0
 22 23  1  0
 23 24  1  0
 24 25  1  0
 25 26  1  0
 26 27  2  0
 26 28  1  0
 28 29  1  0
 29 30  2  0
 19 31  2  0
 31 32  1  0
 32 33  1  0
  5 34  1  0
 34 35  2  0
 35  3  1  0
 15 10  1  0
 31 16  1  0
 33 13  1  0
 29 23  1  0
  1 36  1  0
  1 37  1  0
  1 38  1  0
  2 39  1  0
  2 40  1  0
  4 41  1  0
 11 42  1  0
 12 43  1  0
 15 44  1  0
 17 45  1  0
 22 46  1  0
 23 47  1  1
 24 48  1  0
 24 49  1  0
 25 50  1  0
 25 51  1  0
 28 52  1  0
 32 53  1  0
 32 54  1  0
 34 55  1  0
M  END
>  <meeko>  (846) 
{"is_sidechain": [true], "free_energy": -11.31, "intermolecular_energy": 0.0, "internal_energy": -11.31, "cluster_size": 20, "cluster_id": 1, "rank_in_cluster": 1}

>  <_RMSD_MCS_to_ref>  (846) 
0.5062699104452302

$$$$
ligand
     RDKit          3D

 55 59  0  0  0  0  0  0  0  0999 V2000
   24.8540    9.4020    7.6050 C   0  0  0  0  0  0  0  0  0  0  0  0
   25.5230   10.7550    7.4270 C   0  0  0  0  0  0  0  0  0  0  0  0
   27.0060   10.6660    7.5220 C   0  0  0  0  0  0  0  0  0  0  0  0
   27.9440   11.6760    7.4430 C   0  0  0  0  0  0  0  0  0  0  0  0
   29.1420   11.0300    7.5580 N   0  0  0  0  0  0  0  0  0  0  0  0
   30.6410   11.7690    7.7700 S   0  0  0  0  0  6  0  0  0  0  0  0
   31.3410   10.9250    8.7210 O   0  0  0  0  0  0  0  0  0  0  0  0
   31.1450   11.9780    6.4260 O   0  0  0  0  0  0  0  0  0  0  0  0
   30.3380   13.2120    8.4630 O   0  0  0  0  0  0  0  0  0  0  0  0
   29.4360   14.0960    7.9380 C   0  0  0  0  0  0  0  0  0  0  0  0
   29.6410   14.9410    6.8570 C   0  0  0  0  0  0  0  0  0  0  0  0
   28.7030   15.7950    6.3850 N   0  0  0  0  0  0  0  0  0  0  0  0
   27.5060   15.7960    7.0150 C   0  0  0  0  0  0  0  0  0  0  0  0
   27.1840   14.9940    8.1110 C   0  0  0  0  0  0  0  0  0  0  0  0
   25.8690   15.0660    8.7560 C   0  0  0  0  0  0  0  0  0  0  0  0
   24.7350   14.5060    8.1260 C   0  0  0  0  0  0  0  0  0  0  0  0
   23.4520   14.5600    8.7080 C   0  0  0  0  0  0  0  0  0  0  0  0
   23.2600   15.1740    9.9420 C   0  0  0  0  0  0  0  0  0  0  0  0
   24.3720   15.7140   10.5550 C   0  0  0  0  0  0  0  0  0  0  0  0
   25.6400   15.6690    9.9900 C   0  0  0  0  0  0  0  0  0  0  0  0
   26.5410   16.3400   10.9380 C   0  0  0  0  0  0  0  0  0  0  0  0
   27.7310   16.5280   10.7710 O   0  0  0  0  0  0  0  0  0  0  0  0
   25.7880   16.7090   12.0210 N   0  0  0  0  0  0  0  0  0  0  0  0
   26.3130   17.5440   13.0920 C   0  0  2  0  0  0  0  0  0  0  0  0
   25.6490   17.3240   14.4490 C   0  0  0  0  0  0  0  0  0  0  0  0
   26.3110   18.2250   15.4800 C   0  0  0  0  0  0  0  0  0  0  0  0
   26.2490   19.6770   15.0600 C   0  0  0  0  0  0  0  0  0  0  0  0
   26.2450   20.5950   15.8750 O   0  0  0  0  0  0  0  0  0  0  0  0
   26.2570   19.9270   13.7100 N   0  0  0  0  0  0  0  0  0  0  0  0
   26.1980   19.0150   12.6810 C   0  0  0  0  0  0  0  0  0  0  0  0
   26.1200   19.3960   11.5130 O   0  0  0  0  0  0  0  0  0  0  0  0
   24.4680   16.4150   11.8340 C   0  0  0  0  0  0  0  0  0  0  0  0
   23.5130   16.6780   12.5390 O   0  0  0  0  0  0  0  0  0  0  0  0
   28.1930   14.1390    8.5710 C   0  0  0  0  0  0  0  0  0  0  0  0
   28.9150    9.7100    7.7790 C   0  0  0  0  0  0  0  0  0  0  0  0
   27.6250    9.4500    7.7360 N   0  0  0  0  0  0  0  0  0  0  0  0
   24.7464    9.1845    8.6779 H   0  0  0  0  0  0  0  0  0  0  0  0
   23.8606    9.4192    7.1330 H   0  0  0  0  0  0  0  0  0  0  0  0
   25.4708    8.6230    7.1330 H   0  0  0  0  0  0  0  0  0  0  0  0
   25.2548   11.1554    6.4382 H   0  0  0  0  0  0  0  0  0  0  0  0
   25.1719   11.4141    8.2346 H   0  0  0  0  0  0  0  0  0  0  0  0
   27.7670   12.7543    7.3164 H   0  0  0  0  0  0  0  0  0  0  0  0
   30.6199   14.9155    6.3558 H   0  0  0  0  0  0  0  0  0  0  0  0
   26.7305   16.4780    6.6363 H   0  0  0  0  0  0  0  0  0  0  0  0
   24.8570   14.0123    7.1506 H   0  0  0  0  0  0  0  0  0  0  0  0
   22.5954   14.1130    8.1822 H   0  0  0  0  0  0  0  0  0  0  0  0
   22.2651   15.2265   10.4084 H   0  0  0  0  0  0  0  0  0  0  0  0
   27.3641   17.2509   13.2309 H   0  0  0  0  0  0  0  0  0  0  0  0
   24.5788   17.5687   14.3792 H   0  0  0  0  0  0  0  0  0  0  0  0
   25.7616   16.2720   14.7500 H   0  0  0  0  0  0  0  0  0  0  0  0
   25.7933   18.1080   16.4435 H   0  0  0  0  0  0  0  0  0  0  0  0
   27.3680   17.9336   15.5689 H   0  0  0  0  0  0  0  0  0  0  0  0
   26.3141   20.9176   13.4337 H   0  0  0  0  0  0  0  0  0  0  0  0
   28.0037   13.4937    9.4415 H   0  0  0  0  0  0  0  0  0  0  0  0
   29.6992    8.9621    7.9677 H   0  0  0  0  0  0  0  0  0  0  0  0
  1  2  1  0
  2  3  1  0
  3  4  2  0
  4  5  1  0
  5  6  1  0
  6  7  2  0
  6  8  2  0
  6  9  1  0
  9 10  1  0
 10 11  2  0
 11 12  1  0
 12 13  2  0
 13 14  1  0
 14 15  1  0
 15 16  2  0
 16 17  1  0
 17 18  2  0
 18 19  1  0
 19 20  2  0
 20 21  1  0
 21 22  2  0
 21 23  1  0
 23 24  1  0
 24 25  1  0
 25 26  1  0
 26 27  1  0
 27 28  2  0
 27 29  1  0
 29 30  1  0
 30 31  2  0
 23 32  1  0
 32 33  2  0
 14 34  2  0
  5 35  1  0
 35 36  2  0
 36  3  1  0
 34 10  1  0
 20 15  1  0
 30 24  1  0
 32 19  1  0
  1 37  1  0
  1 38  1  0
  1 39  1  0
  2 40  1  0
  2 41  1  0
  4 42  1  0
 11 43  1  0
 13 44  1  0
 16 45  1  0
 17 46  1  0
 18 47  1  0
 24 48  1  1
 25 49  1  0
 25 50  1  0
 26 51  1  0
 26 52  1  0
 29 53  1  0
 34 54  1  0
 35 55  1  0
M  END
>  <meeko>  (847) 
{"is_sidechain": [true], "free_energy": -11.31, "intermolecular_energy": 0.0, "internal_energy": -11.31, "cluster_size": 19, "cluster_id": 1, "rank_in_cluster": 1}

>  <_RMSD_MCS_to_ref>  (847) 
1.9716446039903952

$$$$
ligand
     RDKit          3D

 55 59  0  0  0  0  0  0  0  0999 V2000
   24.8540    9.4020    7.6050 C   0  0  0  0  0  0  0  0  0  0  0  0
   25.5230   10.7550    7.4270 C   0  0  0  0  0  0  0  0  0  0  0  0
   25.0290   11.4710    6.2200 C   0  0  0  0  0  0  0  0  0  0  0  0
   25.3990   12.7090    5.7340 C   0  0  0  0  0  0  0  0  0  0  0  0
   24.6290   12.8760    4.6180 N   0  0  0  0  0  0  0  0  0  0  0  0
   24.5000   14.2790    3.7010 S   0  0  0  0  0  6  0  0  0  0  0  0
   25.2430   14.0220    2.4810 O   0  0  0  0  0  0  0  0  0  0  0  0
   23.0850   14.6070    3.6920 O   0  0  0  0  0  0  0  0  0  0  0  0
   25.3540   15.5220    4.6290 C   0  0  0  0  0  0  0  0  0  0  0  0
   26.2570   16.3550    3.9980 C   0  0  0  0  0  0  0  0  0  0  0  0
   26.8770   17.3180    4.7820 C   0  0  0  0  0  0  0  0  0  0  0  0
   26.5710   17.4000    6.1440 C   0  0  0  0  0  0  0  0  0  0  0  0
   25.6490   16.5120    6.7050 C   0  0  0  0  0  0  0  0  0  0  0  0
   25.2690   16.5170    8.1350 C   0  0  0  0  0  0  0  0  0  0  0  0
   24.1710   15.7350    8.5910 C   0  0  0  0  0  0  0  0  0  0  0  0
   23.7680   15.7050    9.9350 C   0  0  0  0  0  0  0  0  0  0  0  0
   24.4790   16.4620   10.8400 C   0  0  0  0  0  0  0  0  0  0  0  0
   25.5600   17.2230   10.4100 C   0  0  0  0  0  0  0  0  0  0  0  0
   25.9730   17.2730    9.0890 C   0  0  0  0  0  0  0  0  0  0  0  0
   26.1240   17.9140   11.5740 C   0  0  0  0  0  0  0  0  0  0  0  0
   27.0300   18.7230   11.5220 O   0  0  0  0  0  0  0  0  0  0  0  0
   25.4130   17.4780   12.6830 N   0  0  0  0  0  0  0  0  0  0  0  0
   25.5000   18.0860   14.0060 C   0  0  1  0  0  0  0  0  0  0  0  0
   26.6740   17.5760   14.8410 C   0  0  0  0  0  0  0  0  0  0  0  0
   26.6340   18.2250   16.2160 C   0  0  0  0  0  0  0  0  0  0  0  0
   26.6510   19.7320   16.1110 C   0  0  0  0  0  0  0  0  0  0  0  0
   27.0430   20.4470   17.0280 O   0  0  0  0  0  0  0  0  0  0  0  0
   26.1250   20.2760   14.9660 N   0  0  0  0  0  0  0  0  0  0  0  0
   25.5310   19.6200   13.9130 C   0  0  0  0  0  0  0  0  0  0  0  0
   24.9760   20.2570   13.0180 O   0  0  0  0  0  0  0  0  0  0  0  0
   24.2790   16.6430   12.3070 C   0  0  0  0  0  0  0  0  0  0  0  0
   25.0340   15.5740    5.9450 N   0  0  0  0  0  0  0  0  0  0  0  0
   23.8200   11.7940    4.4710 C   0  0  0  0  0  0  0  0  0  0  0  0
   24.0470   10.9120    5.4230 N   0  0  0  0  0  0  0  0  0  0  0  0
   24.7464    9.1845    8.6779 H   0  0  0  0  0  0  0  0  0  0  0  0
   23.8606    9.4192    7.1330 H   0  0  0  0  0  0  0  0  0  0  0  0
   25.4708    8.6230    7.1330 H   0  0  0  0  0  0  0  0  0  0  0  0
   25.3167   11.3718    8.3141 H   0  0  0  0  0  0  0  0  0  0  0  0
   26.6023   10.5844    7.3007 H   0  0  0  0  0  0  0  0  0  0  0  0
   26.1441   13.4029    6.1505 H   0  0  0  0  0  0  0  0  0  0  0  0
   26.4747   16.2597    2.9240 H   0  0  0  0  0  0  0  0  0  0  0  0
   27.6041   18.0119    4.3350 H   0  0  0  0  0  0  0  0  0  0  0  0
   27.0550   18.1619    6.7726 H   0  0  0  0  0  0  0  0  0  0  0  0
   23.6153   15.1292    7.8601 H   0  0  0  0  0  0  0  0  0  0  0  0
   22.9104   15.0955   10.2560 H   0  0  0  0  0  0  0  0  0  0  0  0
   26.8334   17.8909    8.7924 H   0  0  0  0  0  0  0  0  0  0  0  0
   24.5863   17.7758   14.5341 H   0  0  0  0  0  0  0  0  0  0  0  0
   26.6012   16.4837   14.9483 H   0  0  0  0  0  0  0  0  0  0  0  0
   27.6198   17.8316   14.3408 H   0  0  0  0  0  0  0  0  0  0  0  0
   25.7153   17.9120   16.7336 H   0  0  0  0  0  0  0  0  0  0  0  0
   27.5244   17.9055   16.7774 H   0  0  0  0  0  0  0  0  0  0  0  0
   26.1820   21.3012   14.8853 H   0  0  0  0  0  0  0  0  0  0  0  0
   24.3053   15.6774   12.8333 H   0  0  0  0  0  0  0  0  0  0  0  0
   23.3056   17.0863   12.5640 H   0  0  0  0  0  0  0  0  0  0  0  0
   23.0781   11.6715    3.6681 H   0  0  0  0  0  0  0  0  0  0  0  0
  1  2  1  0
  2  3  1  0
  3  4  2  0
  4  5  1  0
  5  6  1  0
  6  7  2  0
  6  8  2  0
  6  9  1  0
  9 10  2  0
 10 11  1  0
 11 12  2  0
 12 13  1  0
 13 14  1  0
 14 15  2  0
 15 16  1  0
 16 17  2  0
 17 18  1  0
 18 19  2  0
 18 20  1  0
 20 21  2  0
 20 22  1  0
 22 23  1  0
 23 24  1  0
 24 25  1  0
 25 26  1  0
 26 27  2  0
 26 28  1  0
 28 29  1  0
 29 30  2  0
 22 31  1  0
 13 32  2  0
  5 33  1  0
 33 34  2  0
 34  3  1  0
 32  9  1  0
 19 14  1  0
 29 23  1  0
 31 17  1  0
  1 35  1  0
  1 36  1  0
  1 37  1  0
  2 38  1  0
  2 39  1  0
  4 40  1  0
 10 41  1  0
 11 42  1  0
 12 43  1  0
 15 44  1  0
 16 45  1  0
 19 46  1  0
 23 47  1  1
 24 48  1  0
 24 49  1  0
 25 50  1  0
 25 51  1  0
 28 52  1  0
 31 53  1  0
 31 54  1  0
 33 55  1  0
M  END
>  <meeko>  (848) 
{"is_sidechain": [true], "free_energy": -11.31, "intermolecular_energy": 0.0, "internal_energy": -11.31, "cluster_size": 20, "cluster_id": 1, "rank_in_cluster": 1}

>  <_RMSD_MCS_to_ref>  (848) 
0.7828406251878113

$$$$
ligand
     RDKit          3D

 57 61  0  0  0  0  0  0  0  0999 V2000
   24.8540    9.4020    7.6050 C   0  0  0  0  0  0  0  0  0  0  0  0
   25.5230   10.7550    7.4270 C   0  0  0  0  0  0  0  0  0  0  0  0
   25.1550   11.4010    6.1360 C   0  0  0  0  0  0  0  0  0  0  0  0
   25.4990   12.6520    5.6640 C   0  0  0  0  0  0  0  0  0  0  0  0
   24.9100   12.7180    4.4360 N   0  0  0  0  0  0  0  0  0  0  0  0
   24.8720   14.0590    3.4380 S   0  0  0  0  0  6  0  0  0  0  0  0
   23.4840   14.4790    3.3660 O   0  0  0  0  0  0  0  0  0  0  0  0
   25.6340   13.6960    2.2570 O   0  0  0  0  0  0  0  0  0  0  0  0
   25.7600   15.4070    4.2040 C   0  0  0  0  0  0  0  0  0  0  0  0
   26.8620   15.9840    3.3780 C   0  0  0  0  0  0  0  0  0  0  0  0
   27.5880   16.9680    3.9170 C   0  0  0  0  0  0  0  0  0  0  0  0
   27.2960   17.4040    5.2240 C   0  0  0  0  0  0  0  0  0  0  0  0
   27.8870   18.3110    5.9640 N   0  0  0  0  0  0  0  0  0  0  0  0
   27.2070   18.2930    7.1490 C   0  0  0  0  0  0  0  0  0  0  0  0
   26.1640   17.3800    7.1370 C   0  0  0  0  0  0  0  0  0  0  0  0
   25.2630   17.1130    8.2320 C   0  0  0  0  0  0  0  0  0  0  0  0
   24.1050   16.7720    8.0100 O   0  0  0  0  0  0  0  0  0  0  0  0
   25.8130   17.2230    9.4950 N   0  0  0  0  0  0  0  0  0  0  0  0
   25.1690   17.0110   10.7320 C   0  0  0  0  0  0  0  0  0  0  0  0
   24.2010   16.0050   10.7850 C   0  0  0  0  0  0  0  0  0  0  0  0
   23.5220   15.7240   11.9710 C   0  0  0  0  0  0  0  0  0  0  0  0
   23.8070   16.4470   13.1270 C   0  0  0  0  0  0  0  0  0  0  0  0
   24.7790   17.4560   13.1060 C   0  0  0  0  0  0  0  0  0  0  0  0
   25.1010   18.2780   14.3440 C   0  0  1  0  0  0  0  0  0  0  0  0
   26.2940   17.6660   15.0870 C   0  0  0  0  0  0  0  0  0  0  0  0
   26.5720   18.4590   16.3550 C   0  0  0  0  0  0  0  0  0  0  0  0
   26.8180   19.9130   16.0410 C   0  0  0  0  0  0  0  0  0  0  0  0
   27.4900   20.6380   16.7690 O   0  0  0  0  0  0  0  0  0  0  0  0
   26.1960   20.4110   14.9240 N   0  0  0  0  0  0  0  0  0  0  0  0
   25.3580   19.7560   14.0510 C   0  0  0  0  0  0  0  0  0  0  0  0
   24.8260   20.3810   13.1360 O   0  0  0  0  0  0  0  0  0  0  0  0
   25.4460   17.7330   11.8970 C   0  0  0  0  0  0  0  0  0  0  0  0
   26.2320   16.8060    5.8870 N   0  0  0  0  0  0  0  0  0  0  0  0
   25.4200   15.8020    5.4030 N   0  0  0  0  0  0  0  0  0  0  0  0
   24.2130   11.5770    4.2090 C   0  0  0  0  0  0  0  0  0  0  0  0
   24.3500   10.7490    5.2230 N   0  0  0  0  0  0  0  0  0  0  0  0
   24.7464    9.1845    8.6779 H   0  0  0  0  0  0  0  0  0  0  0  0
   23.8606    9.4192    7.1330 H   0  0  0  0  0  0  0  0  0  0  0  0
   25.4708    8.6230    7.1330 H   0  0  0  0  0  0  0  0  0  0  0  0
   25.2152   11.4134    8.2527 H   0  0  0  0  0  0  0  0  0  0  0  0
   26.6113   10.5952    7.4257 H   0  0  0  0  0  0  0  0  0  0  0  0
   26.1084   13.4193    6.1639 H   0  0  0  0  0  0  0  0  0  0  0  0
   27.0686   15.6128    2.3633 H   0  0  0  0  0  0  0  0  0  0  0  0
   28.4052   17.4326    3.3458 H   0  0  0  0  0  0  0  0  0  0  0  0
   27.4578   18.9284    8.0112 H   0  0  0  0  0  0  0  0  0  0  0  0
   26.8068   17.4903    9.5380 H   0  0  0  0  0  0  0  0  0  0  0  0
   23.9708   15.4260    9.8785 H   0  0  0  0  0  0  0  0  0  0  0  0
   22.7606   14.9304   11.9932 H   0  0  0  0  0  0  0  0  0  0  0  0
   23.2672   16.2251   14.0594 H   0  0  0  0  0  0  0  0  0  0  0  0
   24.2043   18.2449   14.9802 H   0  0  0  0  0  0  0  0  0  0  0  0
   26.0640   16.6233   15.3513 H   0  0  0  0  0  0  0  0  0  0  0  0
   27.1812   17.6962   14.4374 H   0  0  0  0  0  0  0  0  0  0  0  0
   25.7050   18.3780   17.0271 H   0  0  0  0  0  0  0  0  0  0  0  0
   27.4721   18.0474   16.8351 H   0  0  0  0  0  0  0  0  0  0  0  0
   26.3799   21.4020   14.7118 H   0  0  0  0  0  0  0  0  0  0  0  0
   26.2000   18.5334   11.8686 H   0  0  0  0  0  0  0  0  0  0  0  0
   23.6182   11.3727    3.3065 H   0  0  0  0  0  0  0  0  0  0  0  0
  1  2  1  0
  2  3  1  0
  3  4  2  0
  4  5  1  0
  5  6  1  0
  6  7  2  0
  6  8  2  0
  6  9  1  0
  9 10  1  0
 10 11  2  0
 11 12  1  0
 12 13  2  0
 13 14  1  0
 14 15  2  0
 15 16  1  0
 16 17  2  0
 16 18  1  0
 18 19  1  0
 19 20  2  0
 20 21  1  0
 21 22  2  0
 22 23  1  0
 23 24  1  0
 24 25  1  0
 25 26  1  0
 26 27  1  0
 27 28  2  0
 27 29  1  0
 29 30  1  0
 30 31  2  0
 23 32  2  0
 15 33  1  0
 33 34  1  0
  5 35  1  0
 35 36  2  0
 36  3  1  0
 34  9  2  0
 33 12  1  0
 32 19  1  0
 30 24  1  0
  1 37  1  0
  1 38  1  0
  1 39  1  0
  2 40  1  0
  2 41  1  0
  4 42  1  0
 10 43  1  0
 11 44  1  0
 14 45  1  0
 18 46  1  0
 20 47  1  0
 21 48  1  0
 22 49  1  0
 24 50  1  1
 25 51  1  0
 25 52  1  0
 26 53  1  0
 26 54  1  0
 29 55  1  0
 32 56  1  0
 35 57  1  0
M  END
>  <meeko>  (849) 
{"is_sidechain": [true], "free_energy": -11.3, "intermolecular_energy": 0.0, "internal_energy": -11.3, "cluster_size": 2, "cluster_id": 1, "rank_in_cluster": 1}

>  <_RMSD_MCS_to_ref>  (849) 
0.5250847550634089

$$$$
ligand
     RDKit          3D

 58 63  0  0  0  0  0  0  0  0999 V2000
   24.8540    9.4020    7.6050 C   0  0  0  0  0  0  0  0  0  0  0  0
   25.5230   10.7550    7.4270 C   0  0  0  0  0  0  0  0  0  0  0  0
   25.0500   11.4610    6.2050 C   0  0  0  0  0  0  0  0  0  0  0  0
   25.5200   12.6310    5.6430 C   0  0  0  0  0  0  0  0  0  0  0  0
   24.7320   12.8150    4.5430 N   0  0  0  0  0  0  0  0  0  0  0  0
   24.7350   14.1490    3.5300 S   0  0  0  0  0  6  0  0  0  0  0  0
   24.8710   13.6420    2.1770 O   0  0  0  0  0  0  0  0  0  0  0  0
   23.6200   14.9770    3.9440 O   0  0  0  0  0  0  0  0  0  0  0  0
   26.1020   15.1240    3.7650 C   0  0  0  0  0  0  0  0  0  0  0  0
   27.0540   15.4310    2.7880 C   0  0  0  0  0  0  0  0  0  0  0  0
   28.0220   16.2240    3.2550 N   0  0  0  0  0  0  0  0  0  0  0  0
   27.6920   16.4280    4.5560 N   0  0  0  0  0  0  0  0  0  0  0  0
   28.3710   17.1930    5.4960 C   0  0  0  0  0  0  0  0  0  0  0  0
   27.9110   17.2960    6.7520 C   0  0  0  0  0  0  0  0  0  0  0  0
   26.6510   16.5340    7.0460 C   0  0  0  0  0  0  0  0  0  0  0  0
   26.1250   16.6150    8.4390 C   0  0  0  0  0  0  0  0  0  0  0  0
   25.2310   15.6090    8.8760 C   0  0  0  0  0  0  0  0  0  0  0  0
   24.7260   15.6120   10.1780 C   0  0  0  0  0  0  0  0  0  0  0  0
   25.1380   16.6310   11.0140 C   0  0  0  0  0  0  0  0  0  0  0  0
   26.0260   17.6260   10.6090 C   0  0  0  0  0  0  0  0  0  0  0  0
   26.5370   17.6310    9.3200 C   0  0  0  0  0  0  0  0  0  0  0  0
   26.3070   18.5470   11.7500 C   0  0  0  0  0  0  0  0  0  0  0  0
   25.4110   18.0570   12.7880 N   0  0  0  0  0  0  0  0  0  0  0  0
   25.5190   18.5300   14.1650 C   0  0  1  0  0  0  0  0  0  0  0  0
   26.6760   17.9070   14.9440 C   0  0  0  0  0  0  0  0  0  0  0  0
   26.6540   18.4210   16.3750 C   0  0  0  0  0  0  0  0  0  0  0  0
   26.7140   19.9300   16.4160 C   0  0  0  0  0  0  0  0  0  0  0  0
   27.1120   20.5430   17.4030 O   0  0  0  0  0  0  0  0  0  0  0  0
   26.2180   20.5980   15.3240 N   0  0  0  0  0  0  0  0  0  0  0  0
   25.5950   20.0640   14.2200 C   0  0  0  0  0  0  0  0  0  0  0  0
   25.0470   20.7990   13.3990 O   0  0  0  0  0  0  0  0  0  0  0  0
   24.7910   16.8720   12.4190 C   0  0  0  0  0  0  0  0  0  0  0  0
   24.1030   16.1350   13.0970 O   0  0  0  0  0  0  0  0  0  0  0  0
   25.9940   15.8290    6.1660 N   0  0  0  0  0  0  0  0  0  0  0  0
   26.5140   15.7640    4.9060 C   0  0  0  0  0  0  0  0  0  0  0  0
   23.8120   11.8170    4.4830 C   0  0  0  0  0  0  0  0  0  0  0  0
   23.9880   10.9650    5.4730 N   0  0  0  0  0  0  0  0  0  0  0  0
   24.7464    9.1845    8.6779 H   0  0  0  0  0  0  0  0  0  0  0  0
   23.8606    9.4192    7.1330 H   0  0  0  0  0  0  0  0  0  0  0  0
   25.4708    8.6230    7.1330 H   0  0  0  0  0  0  0  0  0  0  0  0
   25.2995   11.3787    8.3051 H   0  0  0  0  0  0  0  0  0  0  0  0
   26.6046   10.5850    7.3208 H   0  0  0  0  0  0  0  0  0  0  0  0
   26.3417   13.2694    5.9998 H   0  0  0  0  0  0  0  0  0  0  0  0
   27.0107   15.0615    1.7528 H   0  0  0  0  0  0  0  0  0  0  0  0
   29.2934   17.7186    5.2081 H   0  0  0  0  0  0  0  0  0  0  0  0
   28.4232   17.8990    7.5162 H   0  0  0  0  0  0  0  0  0  0  0  0
   24.9293   14.8127    8.1797 H   0  0  0  0  0  0  0  0  0  0  0  0
   24.0287   14.8346   10.5235 H   0  0  0  0  0  0  0  0  0  0  0  0
   27.2449   18.4079    8.9955 H   0  0  0  0  0  0  0  0  0  0  0  0
   27.3578   18.4755   12.0674 H   0  0  0  0  0  0  0  0  0  0  0  0
   26.1490   19.6072   11.5031 H   0  0  0  0  0  0  0  0  0  0  0  0
   24.5979   18.1953   14.6645 H   0  0  0  0  0  0  0  0  0  0  0  0
   26.5705   16.8121   14.9454 H   0  0  0  0  0  0  0  0  0  0  0  0
   27.6295   18.1812   14.4690 H   0  0  0  0  0  0  0  0  0  0  0  0
   25.7265   18.0857   16.8622 H   0  0  0  0  0  0  0  0  0  0  0  0
   27.5347   18.0236   16.9008 H   0  0  0  0  0  0  0  0  0  0  0  0
   26.3253   21.6224   15.3324 H   0  0  0  0  0  0  0  0  0  0  0  0
   23.0291   11.7319    3.7150 H   0  0  0  0  0  0  0  0  0  0  0  0
  1  2  1  0
  2  3  1  0
  3  4  2  0
  4  5  1  0
  5  6  1  0
  6  7  2  0
  6  8  2  0
  6  9  1  0
  9 10  1  0
 10 11  2  0
 11 12  1  0
 12 13  1  0
 13 14  2  0
 14 15  1  0
 15 16  1  0
 16 17  2  0
 17 18  1  0
 18 19  2  0
 19 20  1  0
 20 21  2  0
 20 22  1  0
 22 23  1  0
 23 24  1  0
 24 25  1  0
 25 26  1  0
 26 27  1  0
 27 28  2  0
 27 29  1  0
 29 30  1  0
 30 31  2  0
 23 32  1  0
 32 33  2  0
 15 34  2  0
 34 35  1  0
  5 36  1  0
 36 37  2  0
 37  3  1  0
 35  9  2  0
 35 12  1  0
 21 16  1  0
 30 24  1  0
 32 19  1  0
  1 38  1  0
  1 39  1  0
  1 40  1  0
  2 41  1  0
  2 42  1  0
  4 43  1  0
 10 44  1  0
 13 45  1  0
 14 46  1  0
 17 47  1  0
 18 48  1  0
 21 49  1  0
 22 50  1  0
 22 51  1  0
 24 52  1  1
 25 53  1  0
 25 54  1  0
 26 55  1  0
 26 56  1  0
 29 57  1  0
 36 58  1  0
M  END
>  <meeko>  (850) 
{"is_sidechain": [true], "free_energy": -11.3, "intermolecular_energy": 0.0, "internal_energy": -11.3, "cluster_size": 4, "cluster_id": 2, "rank_in_cluster": 1}

>  <_RMSD_MCS_to_ref>  (850) 
0.653414450746571

$$$$
ligand
     RDKit          3D

 55 59  0  0  0  0  0  0  0  0999 V2000
   24.8540    9.4020    7.6050 C   0  0  0  0  0  0  0  0  0  0  0  0
   25.5230   10.7550    7.4270 C   0  0  0  0  0  0  0  0  0  0  0  0
   24.7160   11.6690    6.5740 C   0  0  0  0  0  0  0  0  0  0  0  0
   24.9940   12.1470    5.3090 C   0  0  0  0  0  0  0  0  0  0  0  0
   23.9360   12.9600    5.0150 N   0  0  0  0  0  0  0  0  0  0  0  0
   23.8340   14.0040    3.7020 S   0  0  0  0  0  6  0  0  0  0  0  0
   24.6800   13.4070    2.6860 O   0  0  0  0  0  0  0  0  0  0  0  0
   22.4200   14.2460    3.4920 O   0  0  0  0  0  0  0  0  0  0  0  0
   24.5730   15.5210    4.1880 C   0  0  0  0  0  0  0  0  0  0  0  0
   25.0300   16.4020    3.1910 C   0  0  0  0  0  0  0  0  0  0  0  0
   25.6450   17.6160    3.5200 C   0  0  0  0  0  0  0  0  0  0  0  0
   25.8300   17.9940    4.8600 C   0  0  0  0  0  0  0  0  0  0  0  0
   25.3790   17.1240    5.8610 C   0  0  0  0  0  0  0  0  0  0  0  0
   25.4320   17.2170    7.2280 N   0  0  0  0  0  0  0  0  0  0  0  0
   24.8630   16.1070    7.6520 C   0  0  0  0  0  0  0  0  0  0  0  0
   24.6360   15.6090    8.8770 N   0  0  0  0  0  0  0  0  0  0  0  0
   24.7050   16.2540   10.1220 C   0  0  0  0  0  0  0  0  0  0  0  0
   23.7030   16.1910   11.0940 C   0  0  0  0  0  0  0  0  0  0  0  0
   23.8380   16.8500   12.3230 C   0  0  0  0  0  0  0  0  0  0  0  0
   24.9870   17.5940   12.6180 C   0  0  0  0  0  0  0  0  0  0  0  0
   25.1230   18.2740   13.9690 C   0  0  1  0  0  0  0  0  0  0  0  0
   26.3230   17.7000   14.7280 C   0  0  0  0  0  0  0  0  0  0  0  0
   26.4190   18.3410   16.1030 C   0  0  0  0  0  0  0  0  0  0  0  0
   26.5150   19.8410   15.9960 C   0  0  0  0  0  0  0  0  0  0  0  0
   27.0370   20.5300   16.8680 O   0  0  0  0  0  0  0  0  0  0  0  0
   25.9290   20.4150   14.8970 N   0  0  0  0  0  0  0  0  0  0  0  0
   25.2280   19.7970   13.8860 C   0  0  0  0  0  0  0  0  0  0  0  0
   24.6840   20.4800   13.0200 O   0  0  0  0  0  0  0  0  0  0  0  0
   26.0030   17.6500   11.6560 C   0  0  0  0  0  0  0  0  0  0  0  0
   25.8600   16.9890   10.4310 C   0  0  0  0  0  0  0  0  0  0  0  0
   24.4240   15.2940    6.6430 O   0  0  0  0  0  0  0  0  0  0  0  0
   24.7690   15.9360    5.4960 C   0  0  0  0  0  0  0  0  0  0  0  0
   23.0680   12.9540    6.0620 C   0  0  0  0  0  0  0  0  0  0  0  0
   23.5180   12.1850    7.0330 N   0  0  0  0  0  0  0  0  0  0  0  0
   24.7464    9.1845    8.6779 H   0  0  0  0  0  0  0  0  0  0  0  0
   23.8606    9.4192    7.1330 H   0  0  0  0  0  0  0  0  0  0  0  0
   25.4708    8.6230    7.1330 H   0  0  0  0  0  0  0  0  0  0  0  0
   25.6564   11.2178    8.4159 H   0  0  0  0  0  0  0  0  0  0  0  0
   26.4905   10.5924    6.9294 H   0  0  0  0  0  0  0  0  0  0  0  0
   25.8687   11.9239    4.6805 H   0  0  0  0  0  0  0  0  0  0  0  0
   24.9017   16.1319    2.1324 H   0  0  0  0  0  0  0  0  0  0  0  0
   25.9886   18.2841    2.7166 H   0  0  0  0  0  0  0  0  0  0  0  0
   26.3157   18.9471    5.1164 H   0  0  0  0  0  0  0  0  0  0  0  0
   24.3743   14.6133    8.9084 H   0  0  0  0  0  0  0  0  0  0  0  0
   22.7899   15.6124   10.8901 H   0  0  0  0  0  0  0  0  0  0  0  0
   23.0302   16.7820   13.0665 H   0  0  0  0  0  0  0  0  0  0  0  0
   24.1925   18.0622   14.5160 H   0  0  0  0  0  0  0  0  0  0  0  0
   26.1978   16.6129   14.8401 H   0  0  0  0  0  0  0  0  0  0  0  0
   27.2435   17.9116   14.1642 H   0  0  0  0  0  0  0  0  0  0  0  0
   25.5232   18.0788   16.6851 H   0  0  0  0  0  0  0  0  0  0  0  0
   27.3260   17.9672   16.6005 H   0  0  0  0  0  0  0  0  0  0  0  0
   26.0255   21.4374   14.8180 H   0  0  0  0  0  0  0  0  0  0  0  0
   26.9213   18.2184   11.8651 H   0  0  0  0  0  0  0  0  0  0  0  0
   26.6728   17.0469    9.6921 H   0  0  0  0  0  0  0  0  0  0  0  0
   22.1215   13.5135    6.0939 H   0  0  0  0  0  0  0  0  0  0  0  0
  1  2  1  0
  2  3  1  0
  3  4  2  0
  4  5  1  0
  5  6  1  0
  6  7  2  0
  6  8  2  0
  6  9  1  0
  9 10  2  0
 10 11  1  0
 11 12  2  0
 12 13  1  0
 13 14  1  0
 14 15  2  0
 15 16  1  0
 16 17  1  0
 17 18  2  0
 18 19  1  0
 19 20  2  0
 20 21  1  0
 21 22  1  0
 22 23  1  0
 23 24  1  0
 24 25  2  0
 24 26  1  0
 26 27  1  0
 27 28  2  0
 20 29  1  0
 29 30  2  0
 15 31  1  0
 31 32  1  0
  5 33  1  0
 33 34  2  0
 34  3  1  0
 32  9  1  0
 32 13  2  0
 30 17  1  0
 27 21  1  0
  1 35  1  0
  1 36  1  0
  1 37  1  0
  2 38  1  0
  2 39  1  0
  4 40  1  0
 10 41  1  0
 11 42  1  0
 12 43  1  0
 16 44  1  0
 18 45  1  0
 19 46  1  0
 21 47  1  1
 22 48  1  0
 22 49  1  0
 23 50  1  0
 23 51  1  0
 26 52  1  0
 29 53  1  0
 30 54  1  0
 33 55  1  0
M  END
>  <meeko>  (851) 
{"is_sidechain": [true], "free_energy": -11.3, "intermolecular_energy": 0.0, "internal_energy": -11.3, "cluster_size": 20, "cluster_id": 1, "rank_in_cluster": 1}

>  <_RMSD_MCS_to_ref>  (851) 
0.712760040266007

$$$$
ligand
     RDKit          3D

 50 53  0  0  0  0  0  0  0  0999 V2000
   24.8710    9.6160    7.7820 C   0  0  0  0  0  0  0  0  0  0  0  0
   25.4240   10.9650    7.3490 C   0  0  0  0  0  0  0  0  0  0  0  0
   26.8010   11.1990    7.8630 C   0  0  0  0  0  0  0  0  0  0  0  0
   27.2090   11.9670    8.9340 C   0  0  0  0  0  0  0  0  0  0  0  0
   28.5650   11.8010    8.9690 N   0  0  0  0  0  0  0  0  0  0  0  0
   29.6330   12.6520    9.9630 S   0  0  0  0  0  6  0  0  0  0  0  0
   30.9580   12.2520    9.5300 O   0  0  0  0  0  0  0  0  0  0  0  0
   29.1700   12.3580   11.3080 O   0  0  0  0  0  0  0  0  0  0  0  0
   29.4220   14.2540    9.6990 O   0  0  0  0  0  0  0  0  0  0  0  0
   28.1660   14.7390    9.4570 C   0  0  0  0  0  0  0  0  0  0  0  0
   27.6690   14.6250    8.1630 C   0  0  0  0  0  0  0  0  0  0  0  0
   26.4000   15.1110    7.8430 C   0  0  0  0  0  0  0  0  0  0  0  0
   25.6510   15.6960    8.8700 C   0  0  0  0  0  0  0  0  0  0  0  0
   24.3960   16.2540    8.8360 N   0  0  0  0  0  0  0  0  0  0  0  0
   24.0440   16.7050   10.0800 C   0  0  0  0  0  0  0  0  0  0  0  0
   25.0810   16.4400   10.9610 C   0  0  0  0  0  0  0  0  0  0  0  0
   25.1380   16.7610   12.3880 C   0  0  0  0  0  0  0  0  0  0  0  0
   24.9450   15.9220   13.2630 O   0  0  0  0  0  0  0  0  0  0  0  0
   25.4070   18.0760   12.6890 N   0  0  0  0  0  0  0  0  0  0  0  0
   25.3360   18.5700   14.0540 C   0  0  1  0  0  0  0  0  0  0  0  0
   26.3380   17.8780   14.9730 C   0  0  0  0  0  0  0  0  0  0  0  0
   26.2380   18.4700   16.3700 C   0  0  0  0  0  0  0  0  0  0  0  0
   26.4370   19.9670   16.3460 C   0  0  0  0  0  0  0  0  0  0  0  0
   26.9840   20.5740   17.2620 O   0  0  0  0  0  0  0  0  0  0  0  0
   25.9450   20.6350   15.2540 N   0  0  0  0  0  0  0  0  0  0  0  0
   25.6310   20.0740   14.0420 C   0  0  0  0  0  0  0  0  0  0  0  0
   25.5820   20.7540   13.0160 O   0  0  0  0  0  0  0  0  0  0  0  0
   26.1100   15.8000   10.1840 C   0  0  0  0  0  0  0  0  0  0  0  0
   27.3950   15.2940   10.4840 C   0  0  0  0  0  0  0  0  0  0  0  0
   28.9440   11.0230    7.9220 C   0  0  0  0  0  0  0  0  0  0  0  0
   27.8900   10.6220    7.2400 N   0  0  0  0  0  0  0  0  0  0  0  0
   24.8497    9.5640    8.8806 H   0  0  0  0  0  0  0  0  0  0  0  0
   23.8507    9.4948    7.3893 H   0  0  0  0  0  0  0  0  0  0  0  0
   25.5127    8.8135    7.3893 H   0  0  0  0  0  0  0  0  0  0  0  0
   25.4449   11.0031    6.2499 H   0  0  0  0  0  0  0  0  0  0  0  0
   24.7710   11.7468    7.7642 H   0  0  0  0  0  0  0  0  0  0  0  0
   26.5852   12.5743    9.6063 H   0  0  0  0  0  0  0  0  0  0  0  0
   28.2817   14.1473    7.3843 H   0  0  0  0  0  0  0  0  0  0  0  0
   26.0030   15.0367    6.8198 H   0  0  0  0  0  0  0  0  0  0  0  0
   23.8048   16.3231    7.9954 H   0  0  0  0  0  0  0  0  0  0  0  0
   23.0944   17.1968   10.3379 H   0  0  0  0  0  0  0  0  0  0  0  0
   25.6642   18.7242   11.9310 H   0  0  0  0  0  0  0  0  0  0  0  0
   24.3280   18.3593   14.4408 H   0  0  0  0  0  0  0  0  0  0  0  0
   26.1150   16.8016   15.0142 H   0  0  0  0  0  0  0  0  0  0  0  0
   27.3560   18.0272   14.5838 H   0  0  0  0  0  0  0  0  0  0  0  0
   25.2433   18.2471   16.7835 H   0  0  0  0  0  0  0  0  0  0  0  0
   27.0269   18.0244   16.9937 H   0  0  0  0  0  0  0  0  0  0  0  0
   25.7979   21.6497   15.3527 H   0  0  0  0  0  0  0  0  0  0  0  0
   27.7841   15.3360   11.5120 H   0  0  0  0  0  0  0  0  0  0  0  0
   29.9848   10.7640    7.6776 H   0  0  0  0  0  0  0  0  0  0  0  0
  1  2  1  0
  2  3  1  0
  3  4  2  0
  4  5  1  0
  5  6  1  0
  6  7  2  0
  6  8  2  0
  6  9  1  0
  9 10  1  0
 10 11  2  0
 11 12  1  0
 12 13  2  0
 13 14  1  0
 14 15  1  0
 15 16  2  0
 16 17  1  0
 17 18  2  0
 17 19  1  0
 19 20  1  0
 20 21  1  0
 21 22  1  0
 22 23  1  0
 23 24  2  0
 23 25  1  0
 25 26  1  0
 26 27  2  0
 16 28  1  0
 28 29  2  0
  5 30  1  0
 30 31  2  0
 31  3  1  0
 29 10  1  0
 28 13  1  0
 26 20  1  0
  1 32  1  0
  1 33  1  0
  1 34  1  0
  2 35  1  0
  2 36  1  0
  4 37  1  0
 11 38  1  0
 12 39  1  0
 14 40  1  0
 15 41  1  0
 19 42  1  0
 20 43  1  1
 21 44  1  0
 21 45  1  0
 22 46  1  0
 22 47  1  0
 25 48  1  0
 29 49  1  0
 30 50  1  0
M  END
>  <meeko>  (852) 
{"is_sidechain": [true], "free_energy": -11.3, "intermolecular_energy": 0.0, "internal_energy": -11.3, "cluster_size": 17, "cluster_id": 1, "rank_in_cluster": 1}

>  <_RMSD_MCS_to_ref>  (852) 
0.7414667895462347

$$$$
ligand
     RDKit          3D

 58 63  0  0  0  0  0  0  0  0999 V2000
   24.8540    9.4020    7.6050 C   0  0  0  0  0  0  0  0  0  0  0  0
   25.5230   10.7550    7.4270 C   0  0  0  0  0  0  0  0  0  0  0  0
   25.0570   11.4560    6.1990 C   0  0  0  0  0  0  0  0  0  0  0  0
   25.4570   12.6790    5.6940 C   0  0  0  0  0  0  0  0  0  0  0  0
   24.7150   12.8300    4.5590 N   0  0  0  0  0  0  0  0  0  0  0  0
   24.6760   14.1810    3.5710 S   0  0  0  0  0  6  0  0  0  0  0  0
   24.6990   13.6980    2.2040 O   0  0  0  0  0  0  0  0  0  0  0  0
   23.6110   15.0240    4.0810 O   0  0  0  0  0  0  0  0  0  0  0  0
   26.0700   15.1340    3.7110 C   0  0  0  0  0  0  0  0  0  0  0  0
   26.9700   15.3940    2.7030 C   0  0  0  0  0  0  0  0  0  0  0  0
   27.9760   16.1900    3.1630 O   0  0  0  0  0  0  0  0  0  0  0  0
   27.7080   16.4300    4.4760 C   0  0  0  0  0  0  0  0  0  0  0  0
   28.4590   17.1920    5.3540 C   0  0  0  0  0  0  0  0  0  0  0  0
   27.9470   17.2650    6.6530 C   0  0  0  0  0  0  0  0  0  0  0  0
   26.7590   16.6000    6.9930 C   0  0  0  0  0  0  0  0  0  0  0  0
   26.2000   16.6500    8.3620 C   0  0  0  0  0  0  0  0  0  0  0  0
   25.2450   15.6850    8.7780 C   0  0  0  0  0  0  0  0  0  0  0  0
   24.7040   15.6850   10.0670 C   0  0  0  0  0  0  0  0  0  0  0  0
   25.1360   16.6660   10.9330 C   0  0  0  0  0  0  0  0  0  0  0  0
   26.0730   17.6270   10.5680 C   0  0  0  0  0  0  0  0  0  0  0  0
   26.6140   17.6310    9.2910 C   0  0  0  0  0  0  0  0  0  0  0  0
   26.3630   18.5180   11.7280 C   0  0  0  0  0  0  0  0  0  0  0  0
   25.4220   18.0510   12.7360 N   0  0  0  0  0  0  0  0  0  0  0  0
   25.5090   18.5020   14.1220 C   0  0  1  0  0  0  0  0  0  0  0  0
   26.6630   17.8740   14.9040 C   0  0  0  0  0  0  0  0  0  0  0  0
   26.6210   18.3630   16.3430 C   0  0  0  0  0  0  0  0  0  0  0  0
   26.6680   19.8720   16.4110 C   0  0  0  0  0  0  0  0  0  0  0  0
   27.0480   20.4700   17.4130 O   0  0  0  0  0  0  0  0  0  0  0  0
   26.1790   20.5540   15.3260 N   0  0  0  0  0  0  0  0  0  0  0  0
   25.5710   20.0350   14.2050 C   0  0  0  0  0  0  0  0  0  0  0  0
   25.0230   20.7810   13.3940 O   0  0  0  0  0  0  0  0  0  0  0  0
   24.7620   16.8990   12.3330 C   0  0  0  0  0  0  0  0  0  0  0  0
   24.0280   16.1820   12.9820 O   0  0  0  0  0  0  0  0  0  0  0  0
   26.0340   15.8660    6.1110 N   0  0  0  0  0  0  0  0  0  0  0  0
   26.5350   15.7930    4.8570 C   0  0  0  0  0  0  0  0  0  0  0  0
   23.8860   11.7640    4.4220 C   0  0  0  0  0  0  0  0  0  0  0  0
   24.0790   10.8990    5.3980 N   0  0  0  0  0  0  0  0  0  0  0  0
   24.7464    9.1845    8.6779 H   0  0  0  0  0  0  0  0  0  0  0  0
   23.8606    9.4192    7.1330 H   0  0  0  0  0  0  0  0  0  0  0  0
   25.4708    8.6230    7.1330 H   0  0  0  0  0  0  0  0  0  0  0  0
   25.2930   11.3816    8.3014 H   0  0  0  0  0  0  0  0  0  0  0  0
   26.6055   10.5860    7.3289 H   0  0  0  0  0  0  0  0  0  0  0  0
   26.2026   13.3717    6.1115 H   0  0  0  0  0  0  0  0  0  0  0  0
   26.8891   15.0140    1.6739 H   0  0  0  0  0  0  0  0  0  0  0  0
   29.3867   17.7007    5.0532 H   0  0  0  0  0  0  0  0  0  0  0  0
   28.4810   17.8498    7.4164 H   0  0  0  0  0  0  0  0  0  0  0  0
   24.9209   14.9136    8.0639 H   0  0  0  0  0  0  0  0  0  0  0  0
   23.9638   14.9328   10.3773 H   0  0  0  0  0  0  0  0  0  0  0  0
   27.3573   18.3896    9.0044 H   0  0  0  0  0  0  0  0  0  0  0  0
   27.4017   18.3982   12.0698 H   0  0  0  0  0  0  0  0  0  0  0  0
   26.2553   19.5873   11.4936 H   0  0  0  0  0  0  0  0  0  0  0  0
   24.5843   18.1524   14.6044 H   0  0  0  0  0  0  0  0  0  0  0  0
   26.5660   16.7784   14.8854 H   0  0  0  0  0  0  0  0  0  0  0  0
   27.6196   18.1636   14.4446 H   0  0  0  0  0  0  0  0  0  0  0  0
   25.6910   18.0118   16.8139 H   0  0  0  0  0  0  0  0  0  0  0  0
   27.4993   17.9638   16.8714 H   0  0  0  0  0  0  0  0  0  0  0  0
   26.2788   21.5788   15.3532 H   0  0  0  0  0  0  0  0  0  0  0  0
   23.1549   11.6392    3.6097 H   0  0  0  0  0  0  0  0  0  0  0  0
  1  2  1  0
  2  3  1  0
  3  4  2  0
  4  5  1  0
  5  6  1  0
  6  7  2  0
  6  8  2  0
  6  9  1  0
  9 10  2  0
 10 11  1  0
 11 12  1  0
 12 13  2  0
 13 14  1  0
 14 15  2  0
 15 16  1  0
 16 17  2  0
 17 18  1  0
 18 19  2  0
 19 20  1  0
 20 21  2  0
 20 22  1  0
 22 23  1  0
 23 24  1  0
 24 25  1  0
 25 26  1  0
 26 27  1  0
 27 28  2  0
 27 29  1  0
 29 30  1  0
 30 31  2  0
 23 32  1  0
 32 33  2  0
 15 34  1  0
 34 35  2  0
  5 36  1  0
 36 37  2  0
 37  3  1  0
 35  9  1  0
 35 12  1  0
 21 16  1  0
 30 24  1  0
 32 19  1  0
  1 38  1  0
  1 39  1  0
  1 40  1  0
  2 41  1  0
  2 42  1  0
  4 43  1  0
 10 44  1  0
 13 45  1  0
 14 46  1  0
 17 47  1  0
 18 48  1  0
 21 49  1  0
 22 50  1  0
 22 51  1  0
 24 52  1  1
 25 53  1  0
 25 54  1  0
 26 55  1  0
 26 56  1  0
 29 57  1  0
 36 58  1  0
M  END
>  <meeko>  (853) 
{"is_sidechain": [true], "free_energy": -11.29, "intermolecular_energy": 0.0, "internal_energy": -11.29, "cluster_size": 3, "cluster_id": 2, "rank_in_cluster": 1}

>  <_RMSD_MCS_to_ref>  (853) 
0.6666932494700153

$$$$
ligand
     RDKit          3D

 62 67  0  0  0  0  0  0  0  0999 V2000
   24.8710    9.6160    7.7820 C   0  0  0  0  0  0  0  0  0  0  0  0
   25.4240   10.9650    7.3490 C   0  0  0  0  0  0  0  0  0  0  0  0
   25.0150   11.3230    5.9640 C   0  0  0  0  0  0  0  0  0  0  0  0
   25.5420   12.2870    5.1270 C   0  0  0  0  0  0  0  0  0  0  0  0
   24.8070   12.1730    3.9820 N   0  0  0  0  0  0  0  0  0  0  0  0
   24.8860   13.2040    2.6490 S   0  0  0  0  0  6  0  0  0  0  0  0
   23.6950   12.9090    1.8720 O   0  0  0  0  0  0  0  0  0  0  0  0
   26.2080   12.9680    2.0930 O   0  0  0  0  0  0  0  0  0  0  0  0
   24.8300   14.7490    3.1830 O   0  0  0  0  0  0  0  0  0  0  0  0
   25.6750   15.1180    4.1870 C   0  0  0  0  0  0  0  0  0  0  0  0
   25.2070   15.2710    5.4930 C   0  0  0  0  0  0  0  0  0  0  0  0
   26.0770   15.6660    6.5370 C   0  0  0  0  0  0  0  0  0  0  0  0
   25.5760   15.8110    7.9150 C   0  0  0  0  0  0  0  0  0  0  0  0
   24.4400   15.0780    8.3460 C   0  0  0  0  0  0  0  0  0  0  0  0
   23.9400   15.2000    9.6460 C   0  0  0  0  0  0  0  0  0  0  0  0
   24.5980   16.0610   10.4990 C   0  0  0  0  0  0  0  0  0  0  0  0
   25.7130   16.7960   10.1100 C   0  0  0  0  0  0  0  0  0  0  0  0
   26.2120   16.6820    8.8220 C   0  0  0  0  0  0  0  0  0  0  0  0
   26.1740   17.6540   11.2390 C   0  0  0  0  0  0  0  0  0  0  0  0
   25.3000   17.2470   12.3310 N   0  0  0  0  0  0  0  0  0  0  0  0
   25.2580   17.9900   13.5850 C   0  0  2  0  0  0  0  0  0  0  0  0
   25.9630   19.3450   13.5240 C   0  0  0  0  0  0  0  0  0  0  0  0
   25.8040   20.0570   14.8580 C   0  0  0  0  0  0  0  0  0  0  0  0
   26.3330   19.2140   15.9950 C   0  0  0  0  0  0  0  0  0  0  0  0
   26.6880   19.7050   17.0640 O   0  0  0  0  0  0  0  0  0  0  0  0
   26.3200   17.8540   15.8130 N   0  0  0  0  0  0  0  0  0  0  0  0
   25.8060   17.1490   14.7490 C   0  0  0  0  0  0  0  0  0  0  0  0
   25.7060   15.9230   14.8060 O   0  0  0  0  0  0  0  0  0  0  0  0
   24.2990   16.3880   11.8980 C   0  0  0  0  0  0  0  0  0  0  0  0
   23.3370   15.9750   12.5140 O   0  0  0  0  0  0  0  0  0  0  0  0
   27.4300   15.9200    6.2320 C   0  0  0  0  0  0  0  0  0  0  0  0
   27.8710   15.7700    4.9270 C   0  0  0  0  0  0  0  0  0  0  0  0
   27.0010   15.3830    3.9240 C   0  0  0  0  0  0  0  0  0  0  0  0
   27.5890   15.2980    2.6890 O   0  0  0  0  0  0  0  0  0  0  0  0
   29.0070   15.3490    2.9850 C   0  0  0  0  0  0  0  0  0  0  0  0
   29.2070   16.0240    4.3430 C   0  0  0  0  0  0  0  0  0  0  0  0
   23.8570   11.2170    4.1540 C   0  0  0  0  0  0  0  0  0  0  0  0
   23.9640   10.6700    5.3480 N   0  0  0  0  0  0  0  0  0  0  0  0
   24.8497    9.5640    8.8806 H   0  0  0  0  0  0  0  0  0  0  0  0
   23.8507    9.4948    7.3893 H   0  0  0  0  0  0  0  0  0  0  0  0
   25.5127    8.8135    7.3893 H   0  0  0  0  0  0  0  0  0  0  0  0
   25.0530   11.7376    8.0386 H   0  0  0  0  0  0  0  0  0  0  0  0
   26.5220   10.9020    7.3707 H   0  0  0  0  0  0  0  0  0  0  0  0
   26.3652   12.9863    5.3351 H   0  0  0  0  0  0  0  0  0  0  0  0
   24.1462   15.0818    5.7141 H   0  0  0  0  0  0  0  0  0  0  0  0
   23.9408   14.3975    7.6405 H   0  0  0  0  0  0  0  0  0  0  0  0
   23.0573   14.6321    9.9751 H   0  0  0  0  0  0  0  0  0  0  0  0
   27.0927   17.2636    8.5119 H   0  0  0  0  0  0  0  0  0  0  0  0
   27.2288   17.4572   11.4812 H   0  0  0  0  0  0  0  0  0  0  0  0
   26.1222   18.7302   11.0176 H   0  0  0  0  0  0  0  0  0  0  0  0
   24.1940   18.2040   13.7642 H   0  0  0  0  0  0  0  0  0  0  0  0
   27.0321   19.1934   13.3139 H   0  0  0  0  0  0  0  0  0  0  0  0
   25.5166   19.9560   12.7257 H   0  0  0  0  0  0  0  0  0  0  0  0
   26.3595   21.0059   14.8265 H   0  0  0  0  0  0  0  0  0  0  0  0
   24.7329   20.2395   15.0294 H   0  0  0  0  0  0  0  0  0  0  0  0
   26.7468   17.2928   16.5639 H   0  0  0  0  0  0  0  0  0  0  0  0
   28.1282   16.2340    7.0219 H   0  0  0  0  0  0  0  0  0  0  0  0
   29.4143   14.3277    3.0170 H   0  0  0  0  0  0  0  0  0  0  0  0
   29.5298   15.9212    2.2044 H   0  0  0  0  0  0  0  0  0  0  0  0
   30.0092   15.5480    4.9260 H   0  0  0  0  0  0  0  0  0  0  0  0
   29.5141   17.0796    4.3059 H   0  0  0  0  0  0  0  0  0  0  0  0
   23.1041   10.9387    3.4019 H   0  0  0  0  0  0  0  0  0  0  0  0
  1  2  1  0
  2  3  1  0
  3  4  2  0
  4  5  1  0
  5  6  1  0
  6  7  2  0
  6  8  2  0
  6  9  1  0
  9 10  1  0
 10 11  2  0
 11 12  1  0
 12 13  1  0
 13 14  2  0
 14 15  1  0
 15 16  2  0
 16 17  1  0
 17 18  2  0
 17 19  1  0
 19 20  1  0
 20 21  1  0
 21 22  1  0
 22 23  1  0
 23 24  1  0
 24 25  2  0
 24 26  1  0
 26 27  1  0
 27 28  2  0
 20 29  1  0
 29 30  2  0
 12 31  2  0
 31 32  1  0
 32 33  2  0
 33 34  1  0
 34 35  1  0
 35 36  1  0
  5 37  1  0
 37 38  2  0
 38  3  1  0
 33 10  1  0
 18 13  1  0
 27 21  1  0
 36 32  1  0
 29 16  1  0
  1 39  1  0
  1 40  1  0
  1 41  1  0
  2 42  1  0
  2 43  1  0
  4 44  1  0
 11 45  1  0
 14 46  1  0
 15 47  1  0
 18 48  1  0
 19 49  1  0
 19 50  1  0
 21 51  1  1
 22 52  1  0
 22 53  1  0
 23 54  1  0
 23 55  1  0
 26 56  1  0
 31 57  1  0
 35 58  1  0
 35 59  1  0
 36 60  1  0
 36 61  1  0
 37 62  1  0
M  END
>  <meeko>  (854) 
{"is_sidechain": [true], "free_energy": -11.29, "intermolecular_energy": 0.0, "internal_energy": -11.29, "cluster_size": 6, "cluster_id": 2, "rank_in_cluster": 1}

>  <_RMSD_MCS_to_ref>  (854) 
1.8762414977541504

$$$$
ligand
     RDKit          3D

 48 51  0  0  0  0  0  0  0  0999 V2000
   24.8710    9.6160    7.7820 C   0  0  0  0  0  0  0  0  0  0  0  0
   25.4240   10.9650    7.3490 C   0  0  0  0  0  0  0  0  0  0  0  0
   26.4560   11.4770    8.2910 C   0  0  0  0  0  0  0  0  0  0  0  0
   27.2110   12.6310    8.2110 C   0  0  0  0  0  0  0  0  0  0  0  0
   27.9640   12.6190    9.3500 N   0  0  0  0  0  0  0  0  0  0  0  0
   29.2470   13.6560    9.6940 S   0  0  0  0  0  6  0  0  0  0  0  0
   29.6930   13.2590   11.0170 O   0  0  0  0  0  0  0  0  0  0  0  0
   30.1170   13.5590    8.5360 O   0  0  0  0  0  0  0  0  0  0  0  0
   28.6030   15.1530    9.7660 O   0  0  0  0  0  0  0  0  0  0  0  0
   27.3040   15.3710   10.0470 C   0  0  0  0  0  0  0  0  0  0  0  0
   26.6870   15.8360   11.2320 C   0  0  0  0  0  0  0  0  0  0  0  0
   25.3320   15.8790   10.9750 C   0  0  0  0  0  0  0  0  0  0  0  0
   24.1730   16.2490   11.7120 C   0  0  0  0  0  0  0  0  0  0  0  0
   24.2940   16.7450   13.1510 C   0  0  0  0  0  0  0  0  0  0  0  0
   23.6160   16.2790   14.0510 O   0  0  0  0  0  0  0  0  0  0  0  0
   25.2070   17.7660   13.3060 N   0  0  0  0  0  0  0  0  0  0  0  0
   25.3150   18.5130   14.5460 C   0  0  1  0  0  0  0  0  0  0  0  0
   26.2710   17.8520   15.5330 C   0  0  0  0  0  0  0  0  0  0  0  0
   26.3660   18.6980   16.7940 C   0  0  0  0  0  0  0  0  0  0  0  0
   26.7800   20.1150   16.4740 C   0  0  0  0  0  0  0  0  0  0  0  0
   27.4690   20.7870   17.2350 O   0  0  0  0  0  0  0  0  0  0  0  0
   26.3190   20.6380   15.2930 N   0  0  0  0  0  0  0  0  0  0  0  0
   25.8160   19.9260   14.2320 C   0  0  0  0  0  0  0  0  0  0  0  0
   25.7620   20.4180   13.1050 O   0  0  0  0  0  0  0  0  0  0  0  0
   22.9970   16.1900   11.1630 N   0  0  0  0  0  0  0  0  0  0  0  0
   22.9240   15.7430    9.8650 C   0  0  0  0  0  0  0  0  0  0  0  0
   23.9150   15.3800    9.1100 N   0  0  0  0  0  0  0  0  0  0  0  0
   25.1200   15.4600    9.6960 N   0  0  0  0  0  0  0  0  0  0  0  0
   26.3170   15.1450    9.1160 C   0  0  0  0  0  0  0  0  0  0  0  0
   27.7260   11.4660   10.0270 C   0  0  0  0  0  0  0  0  0  0  0  0
   26.7930   10.7610    9.4230 N   0  0  0  0  0  0  0  0  0  0  0  0
   24.8497    9.5640    8.8806 H   0  0  0  0  0  0  0  0  0  0  0  0
   23.8507    9.4948    7.3893 H   0  0  0  0  0  0  0  0  0  0  0  0
   25.5127    8.8135    7.3893 H   0  0  0  0  0  0  0  0  0  0  0  0
   25.8758   10.8593    6.3516 H   0  0  0  0  0  0  0  0  0  0  0  0
   24.5912   11.6836    7.3366 H   0  0  0  0  0  0  0  0  0  0  0  0
   27.2066   13.3871    7.4120 H   0  0  0  0  0  0  0  0  0  0  0  0
   27.1882   16.1092   12.1723 H   0  0  0  0  0  0  0  0  0  0  0  0
   25.8293   18.0053   12.5209 H   0  0  0  0  0  0  0  0  0  0  0  0
   24.3192   18.5420   15.0123 H   0  0  0  0  0  0  0  0  0  0  0  0
   25.8963   16.8505   15.7911 H   0  0  0  0  0  0  0  0  0  0  0  0
   27.2673   17.7649   15.0749 H   0  0  0  0  0  0  0  0  0  0  0  0
   25.3839   18.7147   17.2892 H   0  0  0  0  0  0  0  0  0  0  0  0
   27.1266   18.2544   17.4533 H   0  0  0  0  0  0  0  0  0  0  0  0
   26.3533   21.6625   15.1922 H   0  0  0  0  0  0  0  0  0  0  0  0
   21.9198   15.6872    9.4195 H   0  0  0  0  0  0  0  0  0  0  0  0
   26.4644   14.7771    8.0899 H   0  0  0  0  0  0  0  0  0  0  0  0
   28.2409   11.1636   10.9508 H   0  0  0  0  0  0  0  0  0  0  0  0
  1  2  1  0
  2  3  1  0
  3  4  2  0
  4  5  1  0
  5  6  1  0
  6  7  2  0
  6  8  2  0
  6  9  1  0
  9 10  1  0
 10 11  1  0
 11 12  2  0
 12 13  1  0
 13 14  1  0
 14 15  2  0
 14 16  1  0
 16 17  1  0
 17 18  1  0
 18 19  1  0
 19 20  1  0
 20 21  2  0
 20 22  1  0
 22 23  1  0
 23 24  2  0
 13 25  2  0
 25 26  1  0
 26 27  2  0
 27 28  1  0
 28 29  1  0
  5 30  1  0
 30 31  2  0
 31  3  1  0
 29 10  2  0
 28 12  1  0
 23 17  1  0
  1 32  1  0
  1 33  1  0
  1 34  1  0
  2 35  1  0
  2 36  1  0
  4 37  1  0
 11 38  1  0
 16 39  1  0
 17 40  1  1
 18 41  1  0
 18 42  1  0
 19 43  1  0
 19 44  1  0
 22 45  1  0
 26 46  1  0
 29 47  1  0
 30 48  1  0
M  END
>  <meeko>  (855) 
{"is_sidechain": [true], "free_energy": -11.29, "intermolecular_energy": 0.0, "internal_energy": -11.29, "cluster_size": 19, "cluster_id": 1, "rank_in_cluster": 1}

>  <_RMSD_MCS_to_ref>  (855) 
0.7124354941560208

$$$$
ligand
     RDKit          3D

 64 68  0  0  0  0  0  0  0  0999 V2000
   24.8710    9.6160    7.7820 C   0  0  0  0  0  0  0  0  0  0  0  0
   25.4240   10.9650    7.3490 C   0  0  0  0  0  0  0  0  0  0  0  0
   26.6910   11.3040    8.0510 C   0  0  0  0  0  0  0  0  0  0  0  0
   27.9270   11.6090    7.5130 C   0  0  0  0  0  0  0  0  0  0  0  0
   28.7240   11.8150    8.6030 N   0  0  0  0  0  0  0  0  0  0  0  0
   30.2890   12.4280    8.5700 S   0  0  0  0  0  6  0  0  0  0  0  0
   30.4900   13.0830    9.8470 O   0  0  0  0  0  0  0  0  0  0  0  0
   31.1220   11.3290    8.1200 O   0  0  0  0  0  0  0  0  0  0  0  0
   30.2260   13.6600    7.2980 C   0  0  0  0  0  0  0  0  0  0  0  0
   31.4030   14.0590    6.6620 C   0  0  0  0  0  0  0  0  0  0  0  0
   31.3480   15.0260    5.6580 C   0  0  0  0  0  0  0  0  0  0  0  0
   30.1250   15.6110    5.2930 C   0  0  0  0  0  0  0  0  0  0  0  0
   28.9400   15.2010    5.9400 C   0  0  0  0  0  0  0  0  0  0  0  0
   28.9980   14.2310    6.9520 C   0  0  0  0  0  0  0  0  0  0  0  0
   27.6080   15.8350    5.5680 C   0  0  1  0  0  0  0  0  0  0  0  0
   27.0540   16.6890    6.7160 C   0  0  0  0  0  0  0  0  0  0  0  0
   26.6690   17.8370    6.4990 O   0  0  0  0  0  0  0  0  0  0  0  0
   27.0120   16.0240    7.9280 N   0  0  0  0  0  0  0  0  0  0  0  0
   26.5400   16.4950    9.1650 C   0  0  0  0  0  0  0  0  0  0  0  0
   25.3570   16.0660    9.7640 C   0  0  0  0  0  0  0  0  0  0  0  0
   24.9550   16.5880   10.9990 C   0  0  0  0  0  0  0  0  0  0  0  0
   25.7300   17.5520   11.6610 C   0  0  0  0  0  0  0  0  0  0  0  0
   25.2870   18.0710   13.0190 C   0  0  1  0  0  0  0  0  0  0  0  0
   25.9320   17.2380   14.1330 C   0  0  0  0  0  0  0  0  0  0  0  0
   25.4370   17.7160   15.4880 C   0  0  0  0  0  0  0  0  0  0  0  0
   25.7180   19.1840   15.6800 C   0  0  0  0  0  0  0  0  0  0  0  0
   25.8510   19.6880   16.7910 O   0  0  0  0  0  0  0  0  0  0  0  0
   25.7590   19.9530   14.5440 N   0  0  0  0  0  0  0  0  0  0  0  0
   25.5700   19.5570   13.2390 C   0  0  0  0  0  0  0  0  0  0  0  0
   25.5810   20.3990   12.3430 O   0  0  0  0  0  0  0  0  0  0  0  0
   26.9230   17.9720   11.0610 C   0  0  0  0  0  0  0  0  0  0  0  0
   27.3190   17.4510    9.8240 C   0  0  0  0  0  0  0  0  0  0  0  0
   27.6850   16.6460    4.2600 C   0  0  0  0  0  0  0  0  0  0  0  0
   28.8980   17.4840    4.2090 N   0  0  0  0  0  0  0  0  0  0  0  0
   30.0910   16.6260    4.1730 C   0  0  0  0  0  0  0  0  0  0  0  0
   27.9800   11.6820    9.7310 C   0  0  0  0  0  0  0  0  0  0  0  0
   26.7380   11.3620    9.4300 N   0  0  0  0  0  0  0  0  0  0  0  0
   24.8497    9.5640    8.8806 H   0  0  0  0  0  0  0  0  0  0  0  0
   23.8507    9.4948    7.3893 H   0  0  0  0  0  0  0  0  0  0  0  0
   25.5127    8.8135    7.3893 H   0  0  0  0  0  0  0  0  0  0  0  0
   25.6151   10.9385    6.2660 H   0  0  0  0  0  0  0  0  0  0  0  0
   24.6797   11.7333    7.6053 H   0  0  0  0  0  0  0  0  0  0  0  0
   28.2051   11.6715    6.4506 H   0  0  0  0  0  0  0  0  0  0  0  0
   32.3668   13.6141    6.9505 H   0  0  0  0  0  0  0  0  0  0  0  0
   32.2724   15.3333    5.1470 H   0  0  0  0  0  0  0  0  0  0  0  0
   28.0795   13.9207    7.4718 H   0  0  0  0  0  0  0  0  0  0  0  0
   26.9064   15.0069    5.3891 H   0  0  0  0  0  0  0  0  0  0  0  0
   27.3732   15.0594    7.9233 H   0  0  0  0  0  0  0  0  0  0  0  0
   24.7341   15.3110    9.2621 H   0  0  0  0  0  0  0  0  0  0  0  0
   24.0183   16.2374   11.4569 H   0  0  0  0  0  0  0  0  0  0  0  0
   24.1925   17.9645   13.0471 H   0  0  0  0  0  0  0  0  0  0  0  0
   25.6637   16.1797   13.9991 H   0  0  0  0  0  0  0  0  0  0  0  0
   27.0249   17.3531   14.0851 H   0  0  0  0  0  0  0  0  0  0  0  0
   24.3523   17.5459   15.5549 H   0  0  0  0  0  0  0  0  0  0  0  0
   25.9651   17.1533   16.2718 H   0  0  0  0  0  0  0  0  0  0  0  0
   25.9563   20.9539   14.6858 H   0  0  0  0  0  0  0  0  0  0  0  0
   27.5544   18.7178   11.5661 H   0  0  0  0  0  0  0  0  0  0  0  0
   28.2558   17.7983    9.3639 H   0  0  0  0  0  0  0  0  0  0  0  0
   27.6967   15.9495    3.4087 H   0  0  0  0  0  0  0  0  0  0  0  0
   26.8080   17.3085    4.2148 H   0  0  0  0  0  0  0  0  0  0  0  0
   28.8731   18.0716    3.3634 H   0  0  0  0  0  0  0  0  0  0  0  0
   30.1073   16.0890    3.2131 H   0  0  0  0  0  0  0  0  0  0  0  0
   30.9683   17.2784    4.2946 H   0  0  0  0  0  0  0  0  0  0  0  0
   28.3611   11.8219   10.7534 H   0  0  0  0  0  0  0  0  0  0  0  0
  1  2  1  0
  2  3  1  0
  3  4  2  0
  4  5  1  0
  5  6  1  0
  6  7  2  0
  6  8  2  0
  6  9  1  0
  9 10  2  0
 10 11  1  0
 11 12  2  0
 12 13  1  0
 13 14  2  0
 13 15  1  0
 15 16  1  0
 16 17  2  0
 16 18  1  0
 18 19  1  0
 19 20  2  0
 20 21  1  0
 21 22  2  0
 22 23  1  0
 23 24  1  0
 24 25  1  0
 25 26  1  0
 26 27  2  0
 26 28  1  0
 28 29  1  0
 29 30  2  0
 22 31  1  0
 31 32  2  0
 15 33  1  0
 33 34  1  0
 34 35  1  0
  5 36  1  0
 36 37  2  0
 37  3  1  0
 14  9  1  0
 32 19  1  0
 35 12  1  0
 29 23  1  0
  1 38  1  0
  1 39  1  0
  1 40  1  0
  2 41  1  0
  2 42  1  0
  4 43  1  0
 10 44  1  0
 11 45  1  0
 14 46  1  0
 15 47  1  6
 18 48  1  0
 20 49  1  0
 21 50  1  0
 23 51  1  6
 24 52  1  0
 24 53  1  0
 25 54  1  0
 25 55  1  0
 28 56  1  0
 31 57  1  0
 32 58  1  0
 33 59  1  0
 33 60  1  0
 34 61  1  0
 35 62  1  0
 35 63  1  0
 36 64  1  0
M  END
>  <meeko>  (856) 
{"is_sidechain": [true], "free_energy": -11.28, "intermolecular_energy": 0.0, "internal_energy": -11.28, "cluster_size": 7, "cluster_id": 1, "rank_in_cluster": 1}

>  <_RMSD_MCS_to_ref>  (856) 
1.4160240993711934

$$$$
ligand
     RDKit          3D

 60 65  0  0  0  0  0  0  0  0999 V2000
   24.8710    9.6160    7.7820 C   0  0  0  0  0  0  0  0  0  0  0  0
   25.4240   10.9650    7.3490 C   0  0  0  0  0  0  0  0  0  0  0  0
   25.0340   11.3110    5.9540 C   0  0  0  0  0  0  0  0  0  0  0  0
   24.0310   12.1520    5.5150 C   0  0  0  0  0  0  0  0  0  0  0  0
   24.0990   12.0730    4.1530 N   0  0  0  0  0  0  0  0  0  0  0  0
   23.2860   13.0740    3.0680 S   0  0  0  0  0  6  0  0  0  0  0  0
   22.0290   13.3820    3.7220 O   0  0  0  0  0  0  0  0  0  0  0  0
   23.3340   12.3610    1.8050 O   0  0  0  0  0  0  0  0  0  0  0  0
   24.1810   14.4320    2.9580 O   0  0  0  0  0  0  0  0  0  0  0  0
   25.1090   14.7890    3.9060 C   0  0  0  0  0  0  0  0  0  0  0  0
   24.8210   15.0780    5.2440 C   0  0  0  0  0  0  0  0  0  0  0  0
   25.8270   15.4400    6.1690 C   0  0  0  0  0  0  0  0  0  0  0  0
   25.5330   15.7550    7.5740 C   0  0  0  0  0  0  0  0  0  0  0  0
   24.4180   15.1650    8.2250 C   0  0  0  0  0  0  0  0  0  0  0  0
   24.1170   15.4360    9.5630 C   0  0  0  0  0  0  0  0  0  0  0  0
   24.9480   16.3090   10.2340 C   0  0  0  0  0  0  0  0  0  0  0  0
   26.0510   16.9060    9.6310 C   0  0  0  0  0  0  0  0  0  0  0  0
   26.3560   16.6360    8.3060 C   0  0  0  0  0  0  0  0  0  0  0  0
   26.7580   17.7800   10.6120 C   0  0  0  0  0  0  0  0  0  0  0  0
   25.9020   17.6960   11.7880 N   0  0  0  0  0  0  0  0  0  0  0  0
   26.2900   18.1900   13.1030 C   0  0  2  0  0  0  0  0  0  0  0  0
   25.8070   17.2830   14.2320 C   0  0  0  0  0  0  0  0  0  0  0  0
   26.3270   17.8100   15.5610 C   0  0  0  0  0  0  0  0  0  0  0  0
   25.9140   19.2470   15.7760 C   0  0  0  0  0  0  0  0  0  0  0  0
   25.6230   19.6890   16.8840 O   0  0  0  0  0  0  0  0  0  0  0  0
   25.8950   20.0520   14.6650 N   0  0  0  0  0  0  0  0  0  0  0  0
   25.7860   19.6210   13.3640 C   0  0  0  0  0  0  0  0  0  0  0  0
   25.3050   20.3560   12.5050 O   0  0  0  0  0  0  0  0  0  0  0  0
   24.8770   16.7750   11.6220 C   0  0  0  0  0  0  0  0  0  0  0  0
   24.0620   16.4060   12.4460 O   0  0  0  0  0  0  0  0  0  0  0  0
   27.1320   15.4760    5.6490 C   0  0  0  0  0  0  0  0  0  0  0  0
   28.2680   15.8010    6.3390 O   0  0  0  0  0  0  0  0  0  0  0  0
   29.3070   15.7190    5.4700 C   0  0  0  0  0  0  0  0  0  0  0  0
   28.8670   15.3440    4.2240 C   0  0  0  0  0  0  0  0  0  0  0  0
   27.4590   15.1870    4.3270 C   0  0  0  0  0  0  0  0  0  0  0  0
   26.4290   14.8350    3.4390 C   0  0  0  0  0  0  0  0  0  0  0  0
   25.1500   11.2870    3.8060 C   0  0  0  0  0  0  0  0  0  0  0  0
   25.7260   10.7860    4.8790 N   0  0  0  0  0  0  0  0  0  0  0  0
   24.8497    9.5640    8.8806 H   0  0  0  0  0  0  0  0  0  0  0  0
   23.8507    9.4948    7.3893 H   0  0  0  0  0  0  0  0  0  0  0  0
   25.5127    8.8135    7.3893 H   0  0  0  0  0  0  0  0  0  0  0  0
   25.0383   11.7403    8.0274 H   0  0  0  0  0  0  0  0  0  0  0  0
   26.5218   10.9086    7.3887 H   0  0  0  0  0  0  0  0  0  0  0  0
   23.3358   12.7493    6.1232 H   0  0  0  0  0  0  0  0  0  0  0  0
   23.7776   15.0218    5.5877 H   0  0  0  0  0  0  0  0  0  0  0  0
   23.7729   14.4754    7.6609 H   0  0  0  0  0  0  0  0  0  0  0  0
   23.2526   14.9720   10.0605 H   0  0  0  0  0  0  0  0  0  0  0  0
   27.2306   17.1039    7.8305 H   0  0  0  0  0  0  0  0  0  0  0  0
   27.7672   17.3993   10.8276 H   0  0  0  0  0  0  0  0  0  0  0  0
   26.9076   18.8088   10.2526 H   0  0  0  0  0  0  0  0  0  0  0  0
   27.3900   18.1943   13.0948 H   0  0  0  0  0  0  0  0  0  0  0  0
   24.7072   17.2701   14.2473 H   0  0  0  0  0  0  0  0  0  0  0  0
   26.1826   16.2620   14.0693 H   0  0  0  0  0  0  0  0  0  0  0  0
   25.9197   17.1935   16.3759 H   0  0  0  0  0  0  0  0  0  0  0  0
   27.4258   17.7604   15.5503 H   0  0  0  0  0  0  0  0  0  0  0  0
   25.9688   21.0677   14.8191 H   0  0  0  0  0  0  0  0  0  0  0  0
   30.3565   15.9244    5.7277 H   0  0  0  0  0  0  0  0  0  0  0  0
   29.4828   15.1949    3.3248 H   0  0  0  0  0  0  0  0  0  0  0  0
   26.6563   14.5982    2.3891 H   0  0  0  0  0  0  0  0  0  0  0  0
   25.4751   11.0953    2.7728 H   0  0  0  0  0  0  0  0  0  0  0  0
  1  2  1  0
  2  3  1  0
  3  4  2  0
  4  5  1  0
  5  6  1  0
  6  7  2  0
  6  8  2  0
  6  9  1  0
  9 10  1  0
 10 11  2  0
 11 12  1  0
 12 13  1  0
 13 14  2  0
 14 15  1  0
 15 16  2  0
 16 17  1  0
 17 18  2  0
 17 19  1  0
 19 20  1  0
 20 21  1  0
 21 22  1  0
 22 23  1  0
 23 24  1  0
 24 25  2  0
 24 26  1  0
 26 27  1  0
 27 28  2  0
 20 29  1  0
 29 30  2  0
 12 31  2  0
 31 32  1  0
 32 33  1  0
 33 34  2  0
 34 35  1  0
 35 36  2  0
  5 37  1  0
 37 38  2  0
 38  3  1  0
 36 10  1  0
 18 13  1  0
 27 21  1  0
 35 31  1  0
 29 16  1  0
  1 39  1  0
  1 40  1  0
  1 41  1  0
  2 42  1  0
  2 43  1  0
  4 44  1  0
 11 45  1  0
 14 46  1  0
 15 47  1  0
 18 48  1  0
 19 49  1  0
 19 50  1  0
 21 51  1  6
 22 52  1  0
 22 53  1  0
 23 54  1  0
 23 55  1  0
 26 56  1  0
 33 57  1  0
 34 58  1  0
 36 59  1  0
 37 60  1  0
M  END
>  <meeko>  (857) 
{"is_sidechain": [true], "free_energy": -11.28, "intermolecular_energy": 0.0, "internal_energy": -11.28, "cluster_size": 1, "cluster_id": 2, "rank_in_cluster": 1}

>  <_RMSD_MCS_to_ref>  (857) 
1.5467733648163404

$$$$
ligand
     RDKit          3D

 62 66  0  0  0  0  0  0  0  0999 V2000
   24.8540    9.4020    7.6050 C   0  0  0  0  0  0  0  0  0  0  0  0
   25.5230   10.7550    7.4270 C   0  0  0  0  0  0  0  0  0  0  0  0
   25.2190   11.3630    6.1030 C   0  0  0  0  0  0  0  0  0  0  0  0
   24.5240   12.5230    5.8200 C   0  0  0  0  0  0  0  0  0  0  0  0
   24.5380   12.5970    4.4560 N   0  0  0  0  0  0  0  0  0  0  0  0
   23.9810   13.8830    3.5330 S   0  0  0  0  0  6  0  0  0  0  0  0
   22.5510   13.9400    3.7930 O   0  0  0  0  0  0  0  0  0  0  0  0
   24.5160   13.6690    2.2030 O   0  0  0  0  0  0  0  0  0  0  0  0
   24.7150   15.3580    4.1750 C   0  0  0  0  0  0  0  0  0  0  0  0
   23.9530   16.5310    4.1150 C   0  0  0  0  0  0  0  0  0  0  0  0
   24.4350   17.7030    4.7000 C   0  0  0  0  0  0  0  0  0  0  0  0
   25.6690   17.7020    5.3610 C   0  0  0  0  0  0  0  0  0  0  0  0
   26.4470   16.5370    5.3660 C   0  0  0  0  0  0  0  0  0  0  0  0
   25.9760   15.3660    4.7730 C   0  0  0  0  0  0  0  0  0  0  0  0
   27.6510   16.4240    6.0080 O   0  0  0  0  0  0  0  0  0  0  0  0
   28.1740   17.6250    6.5970 C   0  0  0  0  0  0  0  0  0  0  0  0
   27.0920   18.5060    7.2260 C   0  0  2  0  0  0  0  0  0  0  0  0
   26.3720   17.7720    8.2720 N   0  0  0  0  0  0  0  0  0  0  0  0
   26.9980   17.3450    9.4200 C   0  0  0  0  0  0  0  0  0  0  0  0
   28.2060   17.1810    9.5280 O   0  0  0  0  0  0  0  0  0  0  0  0
   26.0970   17.1210   10.5770 C   0  0  0  0  0  0  0  0  0  0  0  0
   25.1760   16.0770   10.5410 C   0  0  0  0  0  0  0  0  0  0  0  0
   24.3550   15.8600   11.6430 C   0  0  0  0  0  0  0  0  0  0  0  0
   24.4740   16.6660   12.7840 C   0  0  0  0  0  0  0  0  0  0  0  0
   25.4160   17.7050   12.8510 C   0  0  0  0  0  0  0  0  0  0  0  0
   25.5990   18.4920   14.0370 N   0  0  0  0  0  0  0  0  0  0  0  0
   25.5500   17.8610   15.3520 C   0  0  0  0  0  0  0  0  0  0  0  0
   26.6720   18.3770   16.2280 C   0  0  0  0  0  0  0  0  0  0  0  0
   26.6320   19.8750   16.2650 C   0  0  0  0  0  0  0  0  0  0  0  0
   27.1610   20.5160   17.1690 O   0  0  0  0  0  0  0  0  0  0  0  0
   26.0480   20.4850   15.1890 N   0  0  0  0  0  0  0  0  0  0  0  0
   25.7010   19.8880   13.9990 C   0  0  0  0  0  0  0  0  0  0  0  0
   25.5060   20.5970   13.0130 O   0  0  0  0  0  0  0  0  0  0  0  0
   26.2240   17.9170   11.7260 C   0  0  0  0  0  0  0  0  0  0  0  0
   26.1380   18.9270    6.1010 C   0  0  0  0  0  0  0  0  0  0  0  0
   25.2390   11.5440    3.9590 C   0  0  0  0  0  0  0  0  0  0  0  0
   25.6640   10.7710    4.9380 N   0  0  0  0  0  0  0  0  0  0  0  0
   24.7464    9.1845    8.6779 H   0  0  0  0  0  0  0  0  0  0  0  0
   23.8606    9.4192    7.1330 H   0  0  0  0  0  0  0  0  0  0  0  0
   25.4708    8.6230    7.1330 H   0  0  0  0  0  0  0  0  0  0  0  0
   25.1681   11.4324    8.2177 H   0  0  0  0  0  0  0  0  0  0  0  0
   26.6109   10.6042    7.4874 H   0  0  0  0  0  0  0  0  0  0  0  0
   24.0646   13.2261    6.5304 H   0  0  0  0  0  0  0  0  0  0  0  0
   22.9768   16.5289    3.6080 H   0  0  0  0  0  0  0  0  0  0  0  0
   23.8442   18.6290    4.6415 H   0  0  0  0  0  0  0  0  0  0  0  0
   26.5936   14.4557    4.7765 H   0  0  0  0  0  0  0  0  0  0  0  0
   28.8962   17.3459    7.3784 H   0  0  0  0  0  0  0  0  0  0  0  0
   28.6438   18.2078    5.7910 H   0  0  0  0  0  0  0  0  0  0  0  0
   27.5400   19.3908    7.7020 H   0  0  0  0  0  0  0  0  0  0  0  0
   25.3701   17.5708    8.1434 H   0  0  0  0  0  0  0  0  0  0  0  0
   25.0987   15.4325    9.6530 H   0  0  0  0  0  0  0  0  0  0  0  0
   23.6089   15.0521   11.6190 H   0  0  0  0  0  0  0  0  0  0  0  0
   23.8152   16.4804   13.6452 H   0  0  0  0  0  0  0  0  0  0  0  0
   24.5848   18.0892   15.8276 H   0  0  0  0  0  0  0  0  0  0  0  0
   25.6641   16.7737   15.2302 H   0  0  0  0  0  0  0  0  0  0  0  0
   26.5517   17.9822   17.2476 H   0  0  0  0  0  0  0  0  0  0  0  0
   27.6377   18.0471   15.8173 H   0  0  0  0  0  0  0  0  0  0  0  0
   25.8481   21.4914   15.2785 H   0  0  0  0  0  0  0  0  0  0  0  0
   26.9724   18.7230   11.7437 H   0  0  0  0  0  0  0  0  0  0  0  0
   25.2715   19.4507    6.5309 H   0  0  0  0  0  0  0  0  0  0  0  0
   26.6623   19.5991    5.4057 H   0  0  0  0  0  0  0  0  0  0  0  0
   25.4253   11.3626    2.8902 H   0  0  0  0  0  0  0  0  0  0  0  0
  1  2  1  0
  2  3  1  0
  3  4  2  0
  4  5  1  0
  5  6  1  0
  6  7  2  0
  6  8  2  0
  6  9  1  0
  9 10  2  0
 10 11  1  0
 11 12  2  0
 12 13  1  0
 13 14  2  0
 13 15  1  0
 15 16  1  0
 16 17  1  0
 17 18  1  0
 18 19  1  0
 19 20  2  0
 19 21  1  0
 21 22  2  0
 22 23  1  0
 23 24  2  0
 24 25  1  0
 25 26  1  0
 26 27  1  0
 27 28  1  0
 28 29  1  0
 29 30  2  0
 29 31  1  0
 31 32  1  0
 32 33  2  0
 25 34  2  0
 17 35  1  0
  5 36  1  0
 36 37  2  0
 37  3  1  0
 14  9  1  0
 34 21  1  0
 35 12  1  0
 32 26  1  0
  1 38  1  0
  1 39  1  0
  1 40  1  0
  2 41  1  0
  2 42  1  0
  4 43  1  0
 10 44  1  0
 11 45  1  0
 14 46  1  0
 16 47  1  0
 16 48  1  0
 17 49  1  1
 18 50  1  0
 22 51  1  0
 23 52  1  0
 24 53  1  0
 27 54  1  0
 27 55  1  0
 28 56  1  0
 28 57  1  0
 31 58  1  0
 34 59  1  0
 35 60  1  0
 35 61  1  0
 36 62  1  0
M  END
>  <meeko>  (858) 
{"is_sidechain": [true], "free_energy": -11.27, "intermolecular_energy": 0.0, "internal_energy": -11.27, "cluster_size": 11, "cluster_id": 1, "rank_in_cluster": 1}

>  <_RMSD_MCS_to_ref>  (858) 
0.7053570018083033

$$$$
ligand
     RDKit          3D

 60 65  0  0  0  0  0  0  0  0999 V2000
   24.8540    9.4020    7.6050 C   0  0  0  0  0  0  0  0  0  0  0  0
   25.5230   10.7550    7.4270 C   0  0  0  0  0  0  0  0  0  0  0  0
   25.2940   11.3190    6.0690 C   0  0  0  0  0  0  0  0  0  0  0  0
   24.2580   12.1160    5.6240 C   0  0  0  0  0  0  0  0  0  0  0  0
   24.5460   12.3400    4.3070 N   0  0  0  0  0  0  0  0  0  0  0  0
   23.7440   13.4100    3.2840 S   0  0  0  0  0  6  0  0  0  0  0  0
   22.3400   13.0580    3.4270 O   0  0  0  0  0  0  0  0  0  0  0  0
   24.4480   13.3120    2.0160 O   0  0  0  0  0  0  0  0  0  0  0  0
   24.0520   15.0000    4.0190 C   0  0  0  0  0  0  0  0  0  0  0  0
   24.8790   15.0010    5.0880 N   0  0  0  0  0  0  0  0  0  0  0  0
   25.1110   16.1770    5.6990 C   0  0  0  0  0  0  0  0  0  0  0  0
   25.9750   16.1740    6.7980 N   0  0  0  0  0  0  0  0  0  0  0  0
   25.6830   16.3400    8.1680 C   0  0  0  0  0  0  0  0  0  0  0  0
   24.5770   15.6300    8.6980 C   0  0  0  0  0  0  0  0  0  0  0  0
   24.2200   15.7130   10.0510 C   0  0  0  0  0  0  0  0  0  0  0  0
   24.9800   16.5200   10.8730 C   0  0  0  0  0  0  0  0  0  0  0  0
   26.0610   17.2220   10.3500 C   0  0  0  0  0  0  0  0  0  0  0  0
   26.4350   17.1550    9.0190 C   0  0  0  0  0  0  0  0  0  0  0  0
   26.6830   17.9800   11.4400 C   0  0  0  0  0  0  0  0  0  0  0  0
   27.7090   18.6230   11.3320 O   0  0  0  0  0  0  0  0  0  0  0  0
   25.9010   17.7780   12.5670 N   0  0  0  0  0  0  0  0  0  0  0  0
   26.3020   18.1530   13.9200 C   0  0  2  0  0  0  0  0  0  0  0  0
   25.8960   17.1370   14.9860 C   0  0  0  0  0  0  0  0  0  0  0  0
   26.4160   17.5940   16.3400 C   0  0  0  0  0  0  0  0  0  0  0  0
   25.9170   18.9790   16.6810 C   0  0  0  0  0  0  0  0  0  0  0  0
   25.8410   19.3800   17.8390 O   0  0  0  0  0  0  0  0  0  0  0  0
   25.6280   19.8080   15.6260 N   0  0  0  0  0  0  0  0  0  0  0  0
   25.7830   19.5520   14.2820 C   0  0  0  0  0  0  0  0  0  0  0  0
   25.6040   20.4460   13.4540 O   0  0  0  0  0  0  0  0  0  0  0  0
   24.8610   16.7840   12.3360 C   0  0  0  0  0  0  0  0  0  0  0  0
   24.5270   17.3080    5.1350 C   0  0  0  0  0  0  0  0  0  0  0  0
   24.6170   18.6470    5.4420 N   0  0  0  0  0  0  0  0  0  0  0  0
   23.8360   19.3780    4.5820 C   0  0  0  0  0  0  0  0  0  0  0  0
   23.2570   18.5040    3.6900 C   0  0  0  0  0  0  0  0  0  0  0  0
   23.6990   17.2040    4.0260 C   0  0  0  0  0  0  0  0  0  0  0  0
   23.4160   16.0280    3.4280 N   0  0  0  0  0  0  0  0  0  0  0  0
   25.7170   11.7230    4.0000 C   0  0  0  0  0  0  0  0  0  0  0  0
   26.1960   11.0870    5.0490 N   0  0  0  0  0  0  0  0  0  0  0  0
   24.7464    9.1845    8.6779 H   0  0  0  0  0  0  0  0  0  0  0  0
   23.8606    9.4192    7.1330 H   0  0  0  0  0  0  0  0  0  0  0  0
   25.4708    8.6230    7.1330 H   0  0  0  0  0  0  0  0  0  0  0  0
   25.1163   11.4527    8.1739 H   0  0  0  0  0  0  0  0  0  0  0  0
   26.6064   10.6167    7.5578 H   0  0  0  0  0  0  0  0  0  0  0  0
   23.3965   12.4865    6.1990 H   0  0  0  0  0  0  0  0  0  0  0  0
   26.9701   16.0295    6.5748 H   0  0  0  0  0  0  0  0  0  0  0  0
   23.9804   14.9943    8.0272 H   0  0  0  0  0  0  0  0  0  0  0  0
   23.3601   15.1519   10.4456 H   0  0  0  0  0  0  0  0  0  0  0  0
   27.2971   17.7253    8.6427 H   0  0  0  0  0  0  0  0  0  0  0  0
   27.4019   18.1665   13.9113 H   0  0  0  0  0  0  0  0  0  0  0  0
   24.7993   17.0593   15.0208 H   0  0  0  0  0  0  0  0  0  0  0  0
   26.3236   16.1539   14.7398 H   0  0  0  0  0  0  0  0  0  0  0  0
   26.0730   16.8894   17.1120 H   0  0  0  0  0  0  0  0  0  0  0  0
   27.5149   17.6214   16.2986 H   0  0  0  0  0  0  0  0  0  0  0  0
   25.2491   20.7344   15.8693 H   0  0  0  0  0  0  0  0  0  0  0  0
   25.0479   15.8710   12.9204 H   0  0  0  0  0  0  0  0  0  0  0  0
   23.8589   17.1218   12.6388 H   0  0  0  0  0  0  0  0  0  0  0  0
   25.1862   19.0418    6.2043 H   0  0  0  0  0  0  0  0  0  0  0  0
   23.6973   20.4690    4.6020 H   0  0  0  0  0  0  0  0  0  0  0  0
   22.5761   18.7684    2.8675 H   0  0  0  0  0  0  0  0  0  0  0  0
   26.1986   11.7509    3.0114 H   0  0  0  0  0  0  0  0  0  0  0  0
  1  2  1  0
  2  3  1  0
  3  4  2  0
  4  5  1  0
  5  6  1  0
  6  7  2  0
  6  8  2  0
  6  9  1  0
  9 10  2  0
 10 11  1  0
 11 12  1  0
 12 13  1  0
 13 14  2  0
 14 15  1  0
 15 16  2  0
 16 17  1  0
 17 18  2  0
 17 19  1  0
 19 20  2  0
 19 21  1  0
 21 22  1  0
 22 23  1  0
 23 24  1  0
 24 25  1  0
 25 26  2  0
 25 27  1  0
 27 28  1  0
 28 29  2  0
 21 30  1  0
 11 31  2  0
 31 32  1  0
 32 33  1  0
 33 34  2  0
 34 35  1  0
 35 36  2  0
  5 37  1  0
 37 38  2  0
 38  3  1  0
 36  9  1  0
 18 13  1  0
 28 22  1  0
 35 31  1  0
 30 16  1  0
  1 39  1  0
  1 40  1  0
  1 41  1  0
  2 42  1  0
  2 43  1  0
  4 44  1  0
 12 45  1  0
 14 46  1  0
 15 47  1  0
 18 48  1  0
 22 49  1  6
 23 50  1  0
 23 51  1  0
 24 52  1  0
 24 53  1  0
 27 54  1  0
 30 55  1  0
 30 56  1  0
 32 57  1  0
 33 58  1  0
 34 59  1  0
 37 60  1  0
M  END
>  <meeko>  (859) 
{"is_sidechain": [true], "free_energy": -11.27, "intermolecular_energy": 0.0, "internal_energy": -11.27, "cluster_size": 15, "cluster_id": 1, "rank_in_cluster": 1}

>  <_RMSD_MCS_to_ref>  (859) 
1.2834650581747649

$$$$
ligand
     RDKit          3D

 48 51  0  0  0  0  0  0  0  0999 V2000
   24.8710    9.6160    7.7820 C   0  0  0  0  0  0  0  0  0  0  0  0
   25.4240   10.9650    7.3490 C   0  0  0  0  0  0  0  0  0  0  0  0
   26.7660   11.2360    7.9330 C   0  0  0  0  0  0  0  0  0  0  0  0
   27.0990   12.0260    9.0160 C   0  0  0  0  0  0  0  0  0  0  0  0
   28.4530   11.8840    9.1290 N   0  0  0  0  0  0  0  0  0  0  0  0
   29.4580   12.8040   10.1190 S   0  0  0  0  0  6  0  0  0  0  0  0
   29.0170   12.5220   11.4710 O   0  0  0  0  0  0  0  0  0  0  0  0
   30.8050   12.5040    9.6770 O   0  0  0  0  0  0  0  0  0  0  0  0
   29.1340   14.3640    9.7810 O   0  0  0  0  0  0  0  0  0  0  0  0
   27.8610   14.8300    9.5210 C   0  0  0  0  0  0  0  0  0  0  0  0
   27.1880   14.7670    8.1820 C   0  0  0  0  0  0  0  0  0  0  0  0
   25.9940   15.1940    7.9010 N   0  0  0  0  0  0  0  0  0  0  0  0
   25.2900   15.7530    8.9280 C   0  0  0  0  0  0  0  0  0  0  0  0
   24.0760   16.2540    8.9020 N   0  0  0  0  0  0  0  0  0  0  0  0
   23.8230   16.6910   10.1700 C   0  0  0  0  0  0  0  0  0  0  0  0
   24.8880   16.4580   11.0220 C   0  0  0  0  0  0  0  0  0  0  0  0
   25.0470   16.7620   12.4220 C   0  0  0  0  0  0  0  0  0  0  0  0
   25.0140   15.9140   13.3090 O   0  0  0  0  0  0  0  0  0  0  0  0
   25.2300   18.0920   12.7240 N   0  0  0  0  0  0  0  0  0  0  0  0
   25.2740   18.5650   14.1010 C   0  0  1  0  0  0  0  0  0  0  0  0
   26.3090   17.8190   14.9360 C   0  0  0  0  0  0  0  0  0  0  0  0
   26.3290   18.3920   16.3460 C   0  0  0  0  0  0  0  0  0  0  0  0
   26.5820   19.8810   16.3320 C   0  0  0  0  0  0  0  0  0  0  0  0
   27.2110   20.4500   17.2180 O   0  0  0  0  0  0  0  0  0  0  0  0
   26.0450   20.5850   15.2840 N   0  0  0  0  0  0  0  0  0  0  0  0
   25.6250   20.0550   14.0890 C   0  0  0  0  0  0  0  0  0  0  0  0
   25.5290   20.7510   13.0800 O   0  0  0  0  0  0  0  0  0  0  0  0
   25.8360   15.8560   10.2090 N   0  0  0  0  0  0  0  0  0  0  0  0
   27.1180   15.3900   10.4870 C   0  0  0  0  0  0  0  0  0  0  0  0
   28.9060   11.1120    8.1080 C   0  0  0  0  0  0  0  0  0  0  0  0
   27.9020   10.6820    7.3750 N   0  0  0  0  0  0  0  0  0  0  0  0
   24.8497    9.5640    8.8806 H   0  0  0  0  0  0  0  0  0  0  0  0
   23.8507    9.4948    7.3893 H   0  0  0  0  0  0  0  0  0  0  0  0
   25.5127    8.8135    7.3893 H   0  0  0  0  0  0  0  0  0  0  0  0
   25.5056   10.9789    6.2521 H   0  0  0  0  0  0  0  0  0  0  0  0
   24.7355   11.7436    7.7090 H   0  0  0  0  0  0  0  0  0  0  0  0
   26.4279   12.6308    9.6436 H   0  0  0  0  0  0  0  0  0  0  0  0
   27.7609   14.3156    7.3586 H   0  0  0  0  0  0  0  0  0  0  0  0
   22.8830   17.1719   10.4783 H   0  0  0  0  0  0  0  0  0  0  0  0
   25.3387   18.7705   11.9567 H   0  0  0  0  0  0  0  0  0  0  0  0
   24.2887   18.3861   14.5562 H   0  0  0  0  0  0  0  0  0  0  0  0
   26.0469   16.7515   14.9773 H   0  0  0  0  0  0  0  0  0  0  0  0
   27.3026   17.9342   14.4784 H   0  0  0  0  0  0  0  0  0  0  0  0
   25.3578   18.1984   16.8248 H   0  0  0  0  0  0  0  0  0  0  0  0
   27.1431   17.9077   16.9051 H   0  0  0  0  0  0  0  0  0  0  0  0
   25.9481   21.6033   15.4046 H   0  0  0  0  0  0  0  0  0  0  0  0
   27.5241   15.4816   11.5052 H   0  0  0  0  0  0  0  0  0  0  0  0
   29.9645   10.8788    7.9201 H   0  0  0  0  0  0  0  0  0  0  0  0
  1  2  1  0
  2  3  1  0
  3  4  2  0
  4  5  1  0
  5  6  1  0
  6  7  2  0
  6  8  2  0
  6  9  1  0
  9 10  1  0
 10 11  1  0
 11 12  2  0
 12 13  1  0
 13 14  2  0
 14 15  1  0
 15 16  2  0
 16 17  1  0
 17 18  2  0
 17 19  1  0
 19 20  1  0
 20 21  1  0
 21 22  1  0
 22 23  1  0
 23 24  2  0
 23 25  1  0
 25 26  1  0
 26 27  2  0
 16 28  1  0
 28 29  1  0
  5 30  1  0
 30 31  2  0
 31  3  1  0
 29 10  2  0
 28 13  1  0
 26 20  1  0
  1 32  1  0
  1 33  1  0
  1 34  1  0
  2 35  1  0
  2 36  1  0
  4 37  1  0
 11 38  1  0
 15 39  1  0
 19 40  1  0
 20 41  1  1
 21 42  1  0
 21 43  1  0
 22 44  1  0
 22 45  1  0
 25 46  1  0
 29 47  1  0
 30 48  1  0
M  END
>  <meeko>  (860) 
{"is_sidechain": [true], "free_energy": -11.27, "intermolecular_energy": 0.0, "internal_energy": -11.27, "cluster_size": 16, "cluster_id": 1, "rank_in_cluster": 1}

>  <_RMSD_MCS_to_ref>  (860) 
0.7456659216208469

$$$$
ligand
     RDKit          3D

 61 65  0  0  0  0  0  0  0  0999 V2000
   24.8540    9.4020    7.6050 C   0  0  0  0  0  0  0  0  0  0  0  0
   25.5230   10.7550    7.4270 C   0  0  0  0  0  0  0  0  0  0  0  0
   25.0010   11.4880    6.2420 C   0  0  0  0  0  0  0  0  0  0  0  0
   25.1950   12.8070    5.8820 C   0  0  0  0  0  0  0  0  0  0  0  0
   24.4880   12.9460    4.7220 N   0  0  0  0  0  0  0  0  0  0  0  0
   24.5490   14.2670    3.6840 S   0  0  0  0  0  6  0  0  0  0  0  0
   24.9310   13.7270    2.3920 O   0  0  0  0  0  0  0  0  0  0  0  0
   23.3110   14.9950    3.8810 O   0  0  0  0  0  0  0  0  0  0  0  0
   25.8800   15.2410    4.3270 C   0  0  0  0  0  0  0  0  0  0  0  0
   25.6490   15.9390    5.5220 C   0  0  0  0  0  0  0  0  0  0  0  0
   26.6700   16.7010    6.1010 C   0  0  0  0  0  0  0  0  0  0  0  0
   26.3890   17.3930    7.3880 C   0  0  0  0  0  0  0  0  0  0  0  0
   26.2850   18.6130    7.3610 O   0  0  0  0  0  0  0  0  0  0  0  0
   26.3030   16.5650    8.4910 N   0  0  0  0  0  0  0  0  0  0  0  0
   26.0190   16.9440    9.8210 C   0  0  0  0  0  0  0  0  0  0  0  0
   26.8730   17.8780   10.4170 C   0  0  0  0  0  0  0  0  0  0  0  0
   26.6650   18.3040   11.7330 C   0  0  0  0  0  0  0  0  0  0  0  0
   25.5870   17.8110   12.4800 C   0  0  0  0  0  0  0  0  0  0  0  0
   25.3470   18.2350   13.9200 C   0  0  1  0  0  0  0  0  0  0  0  0
   26.2950   17.4760   14.8540 C   0  0  0  0  0  0  0  0  0  0  0  0
   26.0040   17.8480   16.2990 C   0  0  0  0  0  0  0  0  0  0  0  0
   26.1160   19.3370   16.5070 C   0  0  0  0  0  0  0  0  0  0  0  0
   26.3990   19.8290   17.5960 O   0  0  0  0  0  0  0  0  0  0  0  0
   25.8270   20.1300   15.4260 N   0  0  0  0  0  0  0  0  0  0  0  0
   25.4670   19.7410   14.1560 C   0  0  0  0  0  0  0  0  0  0  0  0
   25.2170   20.5950   13.3080 O   0  0  0  0  0  0  0  0  0  0  0  0
   24.7410   16.8680   11.8820 C   0  0  0  0  0  0  0  0  0  0  0  0
   24.9550   16.4390   10.5660 C   0  0  0  0  0  0  0  0  0  0  0  0
   27.9290   16.7530    5.4950 C   0  0  0  0  0  0  0  0  0  0  0  0
   28.1560   16.0710    4.2930 C   0  0  0  0  0  0  0  0  0  0  0  0
   29.4730   16.1260    3.6550 C   0  0  0  0  0  0  0  0  0  0  0  0
   29.6890   15.4890    2.4980 C   0  0  0  0  0  0  0  0  0  0  0  0
   28.6120   14.7220    1.8330 C   0  0  0  0  0  0  0  0  0  0  0  0
   28.8150   14.1590    0.7640 O   0  0  0  0  0  0  0  0  0  0  0  0
   27.4040   14.6760    2.4740 N   0  0  0  0  0  0  0  0  0  0  0  0
   27.1260   15.3210    3.6930 C   0  0  0  0  0  0  0  0  0  0  0  0
   23.9360   11.7500    4.3910 C   0  0  0  0  0  0  0  0  0  0  0  0
   24.2210   10.8430    5.3010 N   0  0  0  0  0  0  0  0  0  0  0  0
   24.7464    9.1845    8.6779 H   0  0  0  0  0  0  0  0  0  0  0  0
   23.8606    9.4192    7.1330 H   0  0  0  0  0  0  0  0  0  0  0  0
   25.4708    8.6230    7.1330 H   0  0  0  0  0  0  0  0  0  0  0  0
   25.3415   11.3611    8.3268 H   0  0  0  0  0  0  0  0  0  0  0  0
   26.5981   10.5825    7.2710 H   0  0  0  0  0  0  0  0  0  0  0  0
   25.7846   13.5714    6.4094 H   0  0  0  0  0  0  0  0  0  0  0  0
   24.6622   15.8871    6.0053 H   0  0  0  0  0  0  0  0  0  0  0  0
   26.4637   15.5613    8.3246 H   0  0  0  0  0  0  0  0  0  0  0  0
   27.7195   18.2829    9.8430 H   0  0  0  0  0  0  0  0  0  0  0  0
   27.3539   19.0325   12.1855 H   0  0  0  0  0  0  0  0  0  0  0  0
   24.3013   17.9775   14.1441 H   0  0  0  0  0  0  0  0  0  0  0  0
   26.1506   16.3938   14.7196 H   0  0  0  0  0  0  0  0  0  0  0  0
   27.3340   17.7449   14.6126 H   0  0  0  0  0  0  0  0  0  0  0  0
   24.9843   17.5248   16.5552 H   0  0  0  0  0  0  0  0  0  0  0  0
   26.7407   17.3477   16.9447 H   0  0  0  0  0  0  0  0  0  0  0  0
   25.8870   21.1459   15.5849 H   0  0  0  0  0  0  0  0  0  0  0  0
   23.8959   16.4583   12.4547 H   0  0  0  0  0  0  0  0  0  0  0  0
   24.2778   15.6975   10.1169 H   0  0  0  0  0  0  0  0  0  0  0  0
   28.7410   17.3295    5.9622 H   0  0  0  0  0  0  0  0  0  0  0  0
   30.2879   16.6931    4.1286 H   0  0  0  0  0  0  0  0  0  0  0  0
   30.6848   15.5363    2.0330 H   0  0  0  0  0  0  0  0  0  0  0  0
   26.6474   14.1326    2.0345 H   0  0  0  0  0  0  0  0  0  0  0  0
   23.3348   11.5653    3.4885 H   0  0  0  0  0  0  0  0  0  0  0  0
  1  2  1  0
  2  3  1  0
  3  4  2  0
  4  5  1  0
  5  6  1  0
  6  7  2  0
  6  8  2  0
  6  9  1  0
  9 10  2  0
 10 11  1  0
 11 12  1  0
 12 13  2  0
 12 14  1  0
 14 15  1  0
 15 16  2  0
 16 17  1  0
 17 18  2  0
 18 19  1  0
 19 20  1  0
 20 21  1  0
 21 22  1  0
 22 23  2  0
 22 24  1  0
 24 25  1  0
 25 26  2  0
 18 27  1  0
 27 28  2  0
 11 29  2  0
 29 30  1  0
 30 31  1  0
 31 32  2  0
 32 33  1  0
 33 34  2  0
 33 35  1  0
 35 36  1  0
  5 37  1  0
 37 38  2  0
 38  3  1  0
 36  9  1  0
 28 15  1  0
 36 30  2  0
 25 19  1  0
  1 39  1  0
  1 40  1  0
  1 41  1  0
  2 42  1  0
  2 43  1  0
  4 44  1  0
 10 45  1  0
 14 46  1  0
 16 47  1  0
 17 48  1  0
 19 49  1  1
 20 50  1  0
 20 51  1  0
 21 52  1  0
 21 53  1  0
 24 54  1  0
 27 55  1  0
 28 56  1  0
 29 57  1  0
 31 58  1  0
 32 59  1  0
 35 60  1  0
 37 61  1  0
M  END
>  <meeko>  (861) 
{"is_sidechain": [true], "free_energy": -11.26, "intermolecular_energy": 0.0, "internal_energy": -11.26, "cluster_size": 16, "cluster_id": 1, "rank_in_cluster": 1}

>  <_RMSD_MCS_to_ref>  (861) 
0.9054549270946615

$$$$
ligand
     RDKit          3D

 60 65  0  0  0  0  0  0  0  0999 V2000
   24.8540    9.4020    7.6050 C   0  0  0  0  0  0  0  0  0  0  0  0
   25.5230   10.7550    7.4270 C   0  0  0  0  0  0  0  0  0  0  0  0
   25.2180   11.3620    6.1030 C   0  0  0  0  0  0  0  0  0  0  0  0
   24.7070   12.6120    5.8170 C   0  0  0  0  0  0  0  0  0  0  0  0
   24.6150   12.6350    4.4530 N   0  0  0  0  0  0  0  0  0  0  0  0
   24.2920   13.9920    3.5230 S   0  0  0  0  0  6  0  0  0  0  0  0
   22.8830   14.2850    3.6780 O   0  0  0  0  0  0  0  0  0  0  0  0
   24.9220   13.7820    2.2360 O   0  0  0  0  0  0  0  0  0  0  0  0
   25.1270   15.3820    4.2170 C   0  0  0  0  0  0  0  0  0  0  0  0
   25.7060   15.6130    5.4530 C   0  0  0  0  0  0  0  0  0  0  0  0
   26.3400   16.8860    5.4260 C   0  0  0  0  0  0  0  0  0  0  0  0
   27.1450   17.6510    6.2900 C   0  0  0  0  0  0  0  0  0  0  0  0
   27.6010   17.2240    7.5470 N   0  0  0  0  0  0  0  0  0  0  0  0
   26.8930   17.1720    8.7660 C   0  0  0  0  0  0  0  0  0  0  0  0
   25.8750   16.2000    8.9140 C   0  0  0  0  0  0  0  0  0  0  0  0
   25.1800   16.0320   10.1220 C   0  0  0  0  0  0  0  0  0  0  0  0
   25.5200   16.8450   11.1860 C   0  0  0  0  0  0  0  0  0  0  0  0
   26.5010   17.8190   11.0270 C   0  0  0  0  0  0  0  0  0  0  0  0
   27.1750   18.0230    9.8390 C   0  0  0  0  0  0  0  0  0  0  0  0
   26.6840   18.5060   12.3070 C   0  0  0  0  0  0  0  0  0  0  0  0
   27.4260   19.4540   12.4780 O   0  0  0  0  0  0  0  0  0  0  0  0
   25.8630   17.8640   13.2190 N   0  0  0  0  0  0  0  0  0  0  0  0
   25.6360   18.3160   14.5860 C   0  0  1  0  0  0  0  0  0  0  0  0
   26.5530   17.6470   15.6100 C   0  0  0  0  0  0  0  0  0  0  0  0
   26.2150   18.1570   17.0010 C   0  0  0  0  0  0  0  0  0  0  0  0
   26.3130   19.6620   17.0730 C   0  0  0  0  0  0  0  0  0  0  0  0
   26.4900   20.2560   18.1330 O   0  0  0  0  0  0  0  0  0  0  0  0
   26.1060   20.3510   15.9050 N   0  0  0  0  0  0  0  0  0  0  0  0
   25.7340   19.8450   14.6810 C   0  0  0  0  0  0  0  0  0  0  0  0
   25.3990   20.6030   13.7710 O   0  0  0  0  0  0  0  0  0  0  0  0
   24.9920   16.8870   12.5800 C   0  0  0  0  0  0  0  0  0  0  0  0
   27.4880   18.9020    5.8980 N   0  0  0  0  0  0  0  0  0  0  0  0
   27.1020   19.3240    4.6770 C   0  0  0  0  0  0  0  0  0  0  0  0
   26.3880   18.6560    3.7530 N   0  0  0  0  0  0  0  0  0  0  0  0
   26.0350   17.4420    4.1950 C   0  0  0  0  0  0  0  0  0  0  0  0
   25.3150   16.5300    3.4760 N   0  0  0  0  0  0  0  0  0  0  0  0
   25.1240   11.4770    3.9570 C   0  0  0  0  0  0  0  0  0  0  0  0
   25.4690   10.6660    4.9380 N   0  0  0  0  0  0  0  0  0  0  0  0
   24.7464    9.1845    8.6779 H   0  0  0  0  0  0  0  0  0  0  0  0
   23.8606    9.4192    7.1330 H   0  0  0  0  0  0  0  0  0  0  0  0
   25.4708    8.6230    7.1330 H   0  0  0  0  0  0  0  0  0  0  0  0
   25.1683   11.4325    8.2177 H   0  0  0  0  0  0  0  0  0  0  0  0
   26.6110   10.6048    7.4875 H   0  0  0  0  0  0  0  0  0  0  0  0
   24.4355   13.4085    6.5254 H   0  0  0  0  0  0  0  0  0  0  0  0
   25.6801   14.9268    6.3124 H   0  0  0  0  0  0  0  0  0  0  0  0
   28.5804   16.9073    7.5842 H   0  0  0  0  0  0  0  0  0  0  0  0
   25.6211   15.5577    8.0578 H   0  0  0  0  0  0  0  0  0  0  0  0
   24.3877   15.2751   10.2186 H   0  0  0  0  0  0  0  0  0  0  0  0
   27.9132   18.8325    9.7396 H   0  0  0  0  0  0  0  0  0  0  0  0
   24.6125   18.0058   14.8435 H   0  0  0  0  0  0  0  0  0  0  0  0
   26.4094   16.5570   15.5740 H   0  0  0  0  0  0  0  0  0  0  0  0
   27.6008   17.8864   15.3759 H   0  0  0  0  0  0  0  0  0  0  0  0
   25.1889   17.8523   17.2547 H   0  0  0  0  0  0  0  0  0  0  0  0
   26.9359   17.7280   17.7125 H   0  0  0  0  0  0  0  0  0  0  0  0
   26.2460   21.3705   15.9498 H   0  0  0  0  0  0  0  0  0  0  0  0
   25.0743   15.9035   13.0658 H   0  0  0  0  0  0  0  0  0  0  0  0
   23.9250   17.1483   12.6365 H   0  0  0  0  0  0  0  0  0  0  0  0
   27.4099   20.3435    4.4015 H   0  0  0  0  0  0  0  0  0  0  0  0
   24.9636   16.6784    2.5192 H   0  0  0  0  0  0  0  0  0  0  0  0
   25.2331   11.2479    2.8867 H   0  0  0  0  0  0  0  0  0  0  0  0
  1  2  1  0
  2  3  1  0
  3  4  2  0
  4  5  1  0
  5  6  1  0
  6  7  2  0
  6  8  2  0
  6  9  1  0
  9 10  2  0
 10 11  1  0
 11 12  2  0
 12 13  1  0
 13 14  1  0
 14 15  2  0
 15 16  1  0
 16 17  2  0
 17 18  1  0
 18 19  2  0
 18 20  1  0
 20 21  2  0
 20 22  1  0
 22 23  1  0
 23 24  1  0
 24 25  1  0
 25 26  1  0
 26 27  2  0
 26 28  1  0
 28 29  1  0
 29 30  2  0
 22 31  1  0
 12 32  1  0
 32 33  2  0
 33 34  1  0
 34 35  2  0
 35 36  1  0
  5 37  1  0
 37 38  2  0
 38  3  1  0
 36  9  1  0
 35 11  1  0
 19 14  1  0
 29 23  1  0
 31 17  1  0
  1 39  1  0
  1 40  1  0
  1 41  1  0
  2 42  1  0
  2 43  1  0
  4 44  1  0
 10 45  1  0
 13 46  1  0
 15 47  1  0
 16 48  1  0
 19 49  1  0
 23 50  1  1
 24 51  1  0
 24 52  1  0
 25 53  1  0
 25 54  1  0
 28 55  1  0
 31 56  1  0
 31 57  1  0
 33 58  1  0
 36 59  1  0
 37 60  1  0
M  END
>  <meeko>  (862) 
{"is_sidechain": [true], "free_energy": -11.26, "intermolecular_energy": 0.0, "internal_energy": -11.26, "cluster_size": 9, "cluster_id": 1, "rank_in_cluster": 1}

>  <_RMSD_MCS_to_ref>  (862) 
0.8424019890237144

$$$$
ligand
     RDKit          3D

 60 65  0  0  0  0  0  0  0  0999 V2000
   24.8540    9.4020    7.6050 C   0  0  0  0  0  0  0  0  0  0  0  0
   25.5230   10.7550    7.4270 C   0  0  0  0  0  0  0  0  0  0  0  0
   24.7900   11.6220    6.4630 C   0  0  0  0  0  0  0  0  0  0  0  0
   25.2470   12.1950    5.2930 C   0  0  0  0  0  0  0  0  0  0  0  0
   24.1640   12.8650    4.8030 N   0  0  0  0  0  0  0  0  0  0  0  0
   24.1640   13.9410    3.5160 S   0  0  0  0  0  6  0  0  0  0  0  0
   23.4140   15.1000    3.9550 O   0  0  0  0  0  0  0  0  0  0  0  0
   23.8140   13.1820    2.3300 O   0  0  0  0  0  0  0  0  0  0  0  0
   25.7730   14.5020    3.2580 C   0  0  0  0  0  0  0  0  0  0  0  0
   26.4930   14.3160    2.0900 C   0  0  0  0  0  0  0  0  0  0  0  0
   27.6920   14.9560    2.2380 N   0  0  0  0  0  0  0  0  0  0  0  0
   27.7430   15.5570    3.4640 C   0  0  0  0  0  0  0  0  0  0  0  0
   28.7800   16.2920    3.8820 N   0  0  0  0  0  0  0  0  0  0  0  0
   28.5760   16.7740    5.1120 C   0  0  0  0  0  0  0  0  0  0  0  0
   27.5060   16.5780    5.9000 N   0  0  0  0  0  0  0  0  0  0  0  0
   26.4730   15.8090    5.4660 C   0  0  0  0  0  0  0  0  0  0  0  0
   25.3830   15.5460    6.3070 N   0  0  0  0  0  0  0  0  0  0  0  0
   25.1870   15.7620    7.6840 C   0  0  0  0  0  0  0  0  0  0  0  0
   24.0850   15.1240    8.3100 C   0  0  0  0  0  0  0  0  0  0  0  0
   23.7980   15.2890    9.6720 C   0  0  0  0  0  0  0  0  0  0  0  0
   24.6220   16.1130   10.4110 C   0  0  0  0  0  0  0  0  0  0  0  0
   25.6960   16.7520    9.7970 C   0  0  0  0  0  0  0  0  0  0  0  0
   26.0000   16.5990    8.4550 C   0  0  0  0  0  0  0  0  0  0  0  0
   26.3890   17.5530   10.8120 C   0  0  0  0  0  0  0  0  0  0  0  0
   27.4100   18.1890   10.6350 O   0  0  0  0  0  0  0  0  0  0  0  0
   25.6770   17.4050   11.9930 N   0  0  0  0  0  0  0  0  0  0  0  0
   26.1840   17.8930   13.2720 C   0  0  2  0  0  0  0  0  0  0  0  0
   25.5480   17.1310   14.4360 C   0  0  0  0  0  0  0  0  0  0  0  0
   26.1870   17.5620   15.7460 C   0  0  0  0  0  0  0  0  0  0  0  0
   26.0800   19.0550   15.9390 C   0  0  0  0  0  0  0  0  0  0  0  0
   25.9660   19.5700   17.0480 O   0  0  0  0  0  0  0  0  0  0  0  0
   26.1490   19.8270   14.8070 N   0  0  0  0  0  0  0  0  0  0  0  0
   26.0200   19.4040   13.5030 C   0  0  0  0  0  0  0  0  0  0  0  0
   25.8150   20.2250   12.6110 O   0  0  0  0  0  0  0  0  0  0  0  0
   24.5660   16.4720   11.8580 C   0  0  0  0  0  0  0  0  0  0  0  0
   26.5710   15.2750    4.1580 C   0  0  0  0  0  0  0  0  0  0  0  0
   23.1320   12.7400    5.6770 C   0  0  0  0  0  0  0  0  0  0  0  0
   23.4740   11.9720    6.6900 N   0  0  0  0  0  0  0  0  0  0  0  0
   24.7464    9.1845    8.6779 H   0  0  0  0  0  0  0  0  0  0  0  0
   23.8606    9.4192    7.1330 H   0  0  0  0  0  0  0  0  0  0  0  0
   25.4708    8.6230    7.1330 H   0  0  0  0  0  0  0  0  0  0  0  0
   25.5609   11.2626    8.4022 H   0  0  0  0  0  0  0  0  0  0  0  0
   26.5328   10.5826    7.0262 H   0  0  0  0  0  0  0  0  0  0  0  0
   26.2541   12.1270    4.8557 H   0  0  0  0  0  0  0  0  0  0  0  0
   26.1607   13.7552    1.2040 H   0  0  0  0  0  0  0  0  0  0  0  0
   28.4424   14.9813    1.5329 H   0  0  0  0  0  0  0  0  0  0  0  0
   29.3768   17.4038    5.5267 H   0  0  0  0  0  0  0  0  0  0  0  0
   24.5779   15.1158    5.8299 H   0  0  0  0  0  0  0  0  0  0  0  0
   23.4328   14.4770    7.7050 H   0  0  0  0  0  0  0  0  0  0  0  0
   22.9425   14.7775   10.1373 H   0  0  0  0  0  0  0  0  0  0  0  0
   26.8580   17.1218    8.0072 H   0  0  0  0  0  0  0  0  0  0  0  0
   27.2670   17.7057   13.2284 H   0  0  0  0  0  0  0  0  0  0  0  0
   24.4698   17.3467   14.4676 H   0  0  0  0  0  0  0  0  0  0  0  0
   25.7069   16.0520   14.2929 H   0  0  0  0  0  0  0  0  0  0  0  0
   25.6768   17.0550   16.5782 H   0  0  0  0  0  0  0  0  0  0  0  0
   27.2523   17.2890   15.7208 H   0  0  0  0  0  0  0  0  0  0  0  0
   26.3156   20.8336   14.9481 H   0  0  0  0  0  0  0  0  0  0  0  0
   24.7111   15.5860   12.4936 H   0  0  0  0  0  0  0  0  0  0  0  0
   23.5986   16.8932   12.1688 H   0  0  0  0  0  0  0  0  0  0  0  0
   22.1471   13.2146    5.5553 H   0  0  0  0  0  0  0  0  0  0  0  0
  1  2  1  0
  2  3  1  0
  3  4  2  0
  4  5  1  0
  5  6  1  0
  6  7  2  0
  6  8  2  0
  6  9  1  0
  9 10  2  0
 10 11  1  0
 11 12  1  0
 12 13  2  0
 13 14  1  0
 14 15  2  0
 15 16  1  0
 16 17  1  0
 17 18  1  0
 18 19  2  0
 19 20  1  0
 20 21  2  0
 21 22  1  0
 22 23  2  0
 22 24  1  0
 24 25  2  0
 24 26  1  0
 26 27  1  0
 27 28  1  0
 28 29  1  0
 29 30  1  0
 30 31  2  0
 30 32  1  0
 32 33  1  0
 33 34  2  0
 26 35  1  0
 16 36  2  0
  5 37  1  0
 37 38  2  0
 38  3  1  0
 36  9  1  0
 36 12  1  0
 23 18  1  0
 33 27  1  0
 35 21  1  0
  1 39  1  0
  1 40  1  0
  1 41  1  0
  2 42  1  0
  2 43  1  0
  4 44  1  0
 10 45  1  0
 11 46  1  0
 14 47  1  0
 17 48  1  0
 19 49  1  0
 20 50  1  0
 23 51  1  0
 27 52  1  6
 28 53  1  0
 28 54  1  0
 29 55  1  0
 29 56  1  0
 32 57  1  0
 35 58  1  0
 35 59  1  0
 37 60  1  0
M  END
>  <meeko>  (863) 
{"is_sidechain": [true], "free_energy": -11.26, "intermolecular_energy": 0.0, "internal_energy": -11.26, "cluster_size": 14, "cluster_id": 1, "rank_in_cluster": 1}

>  <_RMSD_MCS_to_ref>  (863) 
1.5281374283748166

$$$$
ligand
     RDKit          3D

 61 65  0  0  0  0  0  0  0  0999 V2000
   24.8710    9.6160    7.7820 C   0  0  0  0  0  0  0  0  0  0  0  0
   25.4240   10.9650    7.3490 C   0  0  0  0  0  0  0  0  0  0  0  0
   26.8960   11.0590    7.5450 C   0  0  0  0  0  0  0  0  0  0  0  0
   27.6110   11.8990    8.3760 C   0  0  0  0  0  0  0  0  0  0  0  0
   28.9140   11.5710    8.1420 N   0  0  0  0  0  0  0  0  0  0  0  0
   30.2400   12.1760    8.9800 S   0  0  0  0  0  6  0  0  0  0  0  0
   31.2080   11.0940    8.9760 O   0  0  0  0  0  0  0  0  0  0  0  0
   29.7310   12.7440   10.2170 O   0  0  0  0  0  0  0  0  0  0  0  0
   30.8450   13.4880    7.9650 C   0  0  0  0  0  0  0  0  0  0  0  0
   32.1460   13.9660    8.1640 C   0  0  0  0  0  0  0  0  0  0  0  0
   32.6090   15.0400    7.4060 C   0  0  0  0  0  0  0  0  0  0  0  0
   31.7740   15.6360    6.4600 C   0  0  0  0  0  0  0  0  0  0  0  0
   30.4780   15.1580    6.2660 C   0  0  0  0  0  0  0  0  0  0  0  0
   30.0040   14.0860    7.0220 C   0  0  0  0  0  0  0  0  0  0  0  0
   28.7330   13.6000    6.8790 O   0  0  0  0  0  0  0  0  0  0  0  0
   27.8470   14.5360    6.2670 C   0  0  1  0  0  0  0  0  0  0  0  0
   27.2850   15.5920    7.2420 C   0  0  0  0  0  0  0  0  0  0  0  0
   26.7410   16.6130    6.8320 O   0  0  0  0  0  0  0  0  0  0  0  0
   27.4000   15.2000    8.5700 N   0  0  0  0  0  0  0  0  0  0  0  0
   26.9870   15.9070    9.7170 C   0  0  0  0  0  0  0  0  0  0  0  0
   27.4740   17.1610   10.0820 C   0  0  0  0  0  0  0  0  0  0  0  0
   27.0140   17.7930   11.2430 C   0  0  0  0  0  0  0  0  0  0  0  0
   26.0580   17.1810   12.0670 C   0  0  0  0  0  0  0  0  0  0  0  0
   25.5550   17.9010   13.3060 C   0  0  1  0  0  0  0  0  0  0  0  0
   26.0990   17.2220   14.5680 C   0  0  0  0  0  0  0  0  0  0  0  0
   25.5470   17.9110   15.8050 C   0  0  0  0  0  0  0  0  0  0  0  0
   25.8790   19.3820   15.7980 C   0  0  0  0  0  0  0  0  0  0  0  0
   25.9520   20.0430   16.8300 O   0  0  0  0  0  0  0  0  0  0  0  0
   26.0310   19.9690   14.5680 N   0  0  0  0  0  0  0  0  0  0  0  0
   25.8800   19.3950   13.3250 C   0  0  0  0  0  0  0  0  0  0  0  0
   25.9520   20.0980   12.3200 O   0  0  0  0  0  0  0  0  0  0  0  0
   25.5670   15.9230   11.6930 C   0  0  0  0  0  0  0  0  0  0  0  0
   26.0300   15.2940   10.5330 C   0  0  0  0  0  0  0  0  0  0  0  0
   28.4890   15.1610    5.0340 C   0  0  0  0  0  0  0  0  0  0  0  0
   29.7270   15.8170    5.3320 O   0  0  0  0  0  0  0  0  0  0  0  0
   28.9660   10.5650    7.2330 C   0  0  0  0  0  0  0  0  0  0  0  0
   27.7520   10.2290    6.8470 N   0  0  0  0  0  0  0  0  0  0  0  0
   24.8497    9.5640    8.8806 H   0  0  0  0  0  0  0  0  0  0  0  0
   23.8507    9.4948    7.3893 H   0  0  0  0  0  0  0  0  0  0  0  0
   25.5127    8.8135    7.3893 H   0  0  0  0  0  0  0  0  0  0  0  0
   25.1985   11.1144    6.2828 H   0  0  0  0  0  0  0  0  0  0  0  0
   24.9507   11.7390    7.9710 H   0  0  0  0  0  0  0  0  0  0  0  0
   27.2192   12.6588    9.0683 H   0  0  0  0  0  0  0  0  0  0  0  0
   32.7990   13.4964    8.9144 H   0  0  0  0  0  0  0  0  0  0  0  0
   33.6316   15.4175    7.5533 H   0  0  0  0  0  0  0  0  0  0  0  0
   32.1392   16.4860    5.8650 H   0  0  0  0  0  0  0  0  0  0  0  0
   26.9651   13.9659    5.9395 H   0  0  0  0  0  0  0  0  0  0  0  0
   27.8395   14.2834    8.7359 H   0  0  0  0  0  0  0  0  0  0  0  0
   28.2264   17.6582    9.4521 H   0  0  0  0  0  0  0  0  0  0  0  0
   27.4079   18.7839   11.5131 H   0  0  0  0  0  0  0  0  0  0  0  0
   24.4577   17.8277   13.2817 H   0  0  0  0  0  0  0  0  0  0  0  0
   25.7951   16.1648   14.5732 H   0  0  0  0  0  0  0  0  0  0  0  0
   27.1967   17.2935   14.5731 H   0  0  0  0  0  0  0  0  0  0  0  0
   24.4540   17.7891   15.8271 H   0  0  0  0  0  0  0  0  0  0  0  0
   26.0040   17.4529   16.6945 H   0  0  0  0  0  0  0  0  0  0  0  0
   26.2911   20.9656   14.5745 H   0  0  0  0  0  0  0  0  0  0  0  0
   24.8104   15.4256   12.3176 H   0  0  0  0  0  0  0  0  0  0  0  0
   25.6366   14.3041   10.2585 H   0  0  0  0  0  0  0  0  0  0  0  0
   28.6789   14.3684    4.2952 H   0  0  0  0  0  0  0  0  0  0  0  0
   27.7945   15.9198    4.6443 H   0  0  0  0  0  0  0  0  0  0  0  0
   29.8920   10.0957    6.8693 H   0  0  0  0  0  0  0  0  0  0  0  0
  1  2  1  0
  2  3  1  0
  3  4  2  0
  4  5  1  0
  5  6  1  0
  6  7  2  0
  6  8  2  0
  6  9  1  0
  9 10  2  0
 10 11  1  0
 11 12  2  0
 12 13  1  0
 13 14  2  0
 14 15  1  0
 15 16  1  0
 16 17  1  0
 17 18  2  0
 17 19  1  0
 19 20  1  0
 20 21  2  0
 21 22  1  0
 22 23  2  0
 23 24  1  0
 24 25  1  0
 25 26  1  0
 26 27  1  0
 27 28  2  0
 27 29  1  0
 29 30  1  0
 30 31  2  0
 23 32  1  0
 32 33  2  0
 16 34  1  0
 34 35  1  0
  5 36  1  0
 36 37  2  0
 37  3  1  0
 14  9  1  0
 33 20  1  0
 35 13  1  0
 30 24  1  0
  1 38  1  0
  1 39  1  0
  1 40  1  0
  2 41  1  0
  2 42  1  0
  4 43  1  0
 10 44  1  0
 11 45  1  0
 12 46  1  0
 16 47  1  6
 19 48  1  0
 21 49  1  0
 22 50  1  0
 24 51  1  1
 25 52  1  0
 25 53  1  0
 26 54  1  0
 26 55  1  0
 29 56  1  0
 32 57  1  0
 33 58  1  0
 34 59  1  0
 34 60  1  0
 36 61  1  0
M  END
>  <meeko>  (864) 
{"is_sidechain": [true], "free_energy": -11.26, "intermolecular_energy": 0.0, "internal_energy": -11.26, "cluster_size": 17, "cluster_id": 1, "rank_in_cluster": 1}

>  <_RMSD_MCS_to_ref>  (864) 
1.3035547552749747

$$$$
ligand
     RDKit          3D

 50 53  0  0  0  0  0  0  0  0999 V2000
   24.8710    9.6160    7.7820 C   0  0  0  0  0  0  0  0  0  0  0  0
   25.4240   10.9650    7.3490 C   0  0  0  0  0  0  0  0  0  0  0  0
   26.7720   11.2280    7.9200 C   0  0  0  0  0  0  0  0  0  0  0  0
   27.1100   11.9810    9.0260 C   0  0  0  0  0  0  0  0  0  0  0  0
   28.4670   11.8880    9.0980 N   0  0  0  0  0  0  0  0  0  0  0  0
   29.4680   12.7950   10.1030 S   0  0  0  0  0  6  0  0  0  0  0  0
   30.8170   12.4240    9.7170 O   0  0  0  0  0  0  0  0  0  0  0  0
   28.9860   12.5380   11.4490 O   0  0  0  0  0  0  0  0  0  0  0  0
   29.2420   14.3620    9.6860 O   0  0  0  0  0  0  0  0  0  0  0  0
   28.1830   14.6610    8.8640 C   0  0  0  0  0  0  0  0  0  0  0  0
   28.2690   14.2790    7.5220 C   0  0  0  0  0  0  0  0  0  0  0  0
   27.2100   14.5530    6.6650 C   0  0  0  0  0  0  0  0  0  0  0  0
   26.0760   15.1950    7.1580 C   0  0  0  0  0  0  0  0  0  0  0  0
   26.0010   15.5560    8.5190 C   0  0  0  0  0  0  0  0  0  0  0  0
   24.8970   16.1880    9.0760 C   0  0  0  0  0  0  0  0  0  0  0  0
   24.8040   16.5360   10.3720 N   0  0  0  0  0  0  0  0  0  0  0  0
   25.8790   16.2260   11.1280 C   0  0  0  0  0  0  0  0  0  0  0  0
   25.8020   16.6060   12.5890 C   0  0  0  0  0  0  0  0  0  0  0  0
   25.6420   15.7820   13.4840 O   0  0  0  0  0  0  0  0  0  0  0  0
   25.9160   17.9620   12.8440 N   0  0  0  0  0  0  0  0  0  0  0  0
   25.7020   18.5250   14.1650 C   0  0  1  0  0  0  0  0  0  0  0  0
   26.6390   17.9180   15.2050 C   0  0  0  0  0  0  0  0  0  0  0  0
   26.3810   18.5630   16.5580 C   0  0  0  0  0  0  0  0  0  0  0  0
   26.5200   20.0660   16.4840 C   0  0  0  0  0  0  0  0  0  0  0  0
   26.9430   20.7350   17.4210 O   0  0  0  0  0  0  0  0  0  0  0  0
   26.1150   20.6640   15.3180 N   0  0  0  0  0  0  0  0  0  0  0  0
   25.9300   20.0390   14.1090 C   0  0  0  0  0  0  0  0  0  0  0  0
   25.9340   20.6790   13.0580 O   0  0  0  0  0  0  0  0  0  0  0  0
   27.0000   15.6130   10.7020 N   0  0  0  0  0  0  0  0  0  0  0  0
   27.0560   15.2880    9.3990 C   0  0  0  0  0  0  0  0  0  0  0  0
   28.9170   11.1610    8.0420 C   0  0  0  0  0  0  0  0  0  0  0  0
   27.9090   10.7170    7.3210 N   0  0  0  0  0  0  0  0  0  0  0  0
   24.8497    9.5640    8.8806 H   0  0  0  0  0  0  0  0  0  0  0  0
   23.8507    9.4948    7.3893 H   0  0  0  0  0  0  0  0  0  0  0  0
   25.5127    8.8135    7.3893 H   0  0  0  0  0  0  0  0  0  0  0  0
   25.4942   10.9835    6.2514 H   0  0  0  0  0  0  0  0  0  0  0  0
   24.7420   11.7446    7.7192 H   0  0  0  0  0  0  0  0  0  0  0  0
   26.4356   12.5321    9.6979 H   0  0  0  0  0  0  0  0  0  0  0  0
   29.1672   13.7660    7.1477 H   0  0  0  0  0  0  0  0  0  0  0  0
   27.2666   14.2651    5.6049 H   0  0  0  0  0  0  0  0  0  0  0  0
   25.2368   15.4209    6.4836 H   0  0  0  0  0  0  0  0  0  0  0  0
   24.0467   16.4181    8.4172 H   0  0  0  0  0  0  0  0  0  0  0  0
   26.1614   18.5941   12.0687 H   0  0  0  0  0  0  0  0  0  0  0  0
   24.6691   18.2951   14.4655 H   0  0  0  0  0  0  0  0  0  0  0  0
   26.4576   16.8353   15.2744 H   0  0  0  0  0  0  0  0  0  0  0  0
   27.6826   18.0966   14.9068 H   0  0  0  0  0  0  0  0  0  0  0  0
   25.3612   18.3130   16.8857 H   0  0  0  0  0  0  0  0  0  0  0  0
   27.1239   18.1799   17.2731 H   0  0  0  0  0  0  0  0  0  0  0  0
   25.9324   21.6771   15.3522 H   0  0  0  0  0  0  0  0  0  0  0  0
   29.9773   10.9698    7.8201 H   0  0  0  0  0  0  0  0  0  0  0  0
  1  2  1  0
  2  3  1  0
  3  4  2  0
  4  5  1  0
  5  6  1  0
  6  7  2  0
  6  8  2  0
  6  9  1  0
  9 10  1  0
 10 11  2  0
 11 12  1  0
 12 13  2  0
 13 14  1  0
 14 15  2  0
 15 16  1  0
 16 17  2  0
 17 18  1  0
 18 19  2  0
 18 20  1  0
 20 21  1  0
 21 22  1  0
 22 23  1  0
 23 24  1  0
 24 25  2  0
 24 26  1  0
 26 27  1  0
 27 28  2  0
 17 29  1  0
 29 30  2  0
  5 31  1  0
 31 32  2  0
 32  3  1  0
 30 10  1  0
 30 14  1  0
 27 21  1  0
  1 33  1  0
  1 34  1  0
  1 35  1  0
  2 36  1  0
  2 37  1  0
  4 38  1  0
 11 39  1  0
 12 40  1  0
 13 41  1  0
 15 42  1  0
 20 43  1  0
 21 44  1  1
 22 45  1  0
 22 46  1  0
 23 47  1  0
 23 48  1  0
 26 49  1  0
 31 50  1  0
M  END
>  <meeko>  (865) 
{"is_sidechain": [true], "free_energy": -11.26, "intermolecular_energy": 0.0, "internal_energy": -11.26, "cluster_size": 19, "cluster_id": 1, "rank_in_cluster": 1}

>  <_RMSD_MCS_to_ref>  (865) 
0.9642266907273992

$$$$
ligand
     RDKit          3D

 60 65  0  0  0  0  0  0  0  0999 V2000
   24.8540    9.4020    7.6050 C   0  0  0  0  0  0  0  0  0  0  0  0
   25.5230   10.7550    7.4270 C   0  0  0  0  0  0  0  0  0  0  0  0
   25.0370   11.4880    6.2250 C   0  0  0  0  0  0  0  0  0  0  0  0
   25.2090   12.8190    5.9000 C   0  0  0  0  0  0  0  0  0  0  0  0
   24.5560   12.9610    4.7110 N   0  0  0  0  0  0  0  0  0  0  0  0
   24.4040   14.3670    3.8050 S   0  0  0  0  0  6  0  0  0  0  0  0
   23.8380   13.9940    2.5240 O   0  0  0  0  0  0  0  0  0  0  0  0
   23.7190   15.2870    4.6980 O   0  0  0  0  0  0  0  0  0  0  0  0
   26.0210   15.0090    3.5350 C   0  0  0  0  0  0  0  0  0  0  0  0
   26.5690   14.8830    2.2540 C   0  0  0  0  0  0  0  0  0  0  0  0
   27.8270   15.3970    2.0480 C   0  0  0  0  0  0  0  0  0  0  0  0
   28.5350   16.0070    3.0170 N   0  0  0  0  0  0  0  0  0  0  0  0
   27.9870   16.1030    4.2440 C   0  0  0  0  0  0  0  0  0  0  0  0
   28.7030   16.7210    5.2530 C   0  0  0  0  0  0  0  0  0  0  0  0
   28.1780   16.8480    6.5380 C   0  0  0  0  0  0  0  0  0  0  0  0
   26.9170   16.3340    6.7930 C   0  0  0  0  0  0  0  0  0  0  0  0
   26.2650   16.4170    8.1110 C   0  0  0  0  0  0  0  0  0  0  0  0
   25.1020   15.6450    8.3790 C   0  0  0  0  0  0  0  0  0  0  0  0
   24.4390   15.7110    9.6070 C   0  0  0  0  0  0  0  0  0  0  0  0
   24.9560   16.5650   10.5580 C   0  0  0  0  0  0  0  0  0  0  0  0
   26.0940   17.3340   10.3370 C   0  0  0  0  0  0  0  0  0  0  0  0
   26.7600   17.2680    9.1230 C   0  0  0  0  0  0  0  0  0  0  0  0
   26.4010   18.1470   11.5500 C   0  0  0  0  0  0  0  0  0  0  0  0
   25.2780   17.8490   12.4270 N   0  0  0  0  0  0  0  0  0  0  0  0
   25.2790   18.2680   13.8250 C   0  0  1  0  0  0  0  0  0  0  0  0
   26.2720   17.5030   14.6990 C   0  0  0  0  0  0  0  0  0  0  0  0
   26.1440   17.9760   16.1390 C   0  0  0  0  0  0  0  0  0  0  0  0
   26.3540   19.4680   16.2460 C   0  0  0  0  0  0  0  0  0  0  0  0
   26.7040   20.0060   17.2940 O   0  0  0  0  0  0  0  0  0  0  0  0
   26.0530   20.2150   15.1360 N   0  0  0  0  0  0  0  0  0  0  0  0
   25.5040   19.7830   13.9500 C   0  0  0  0  0  0  0  0  0  0  0  0
   25.1290   20.5970   13.1060 O   0  0  0  0  0  0  0  0  0  0  0  0
   24.4690   16.8490   11.9120 C   0  0  0  0  0  0  0  0  0  0  0  0
   23.5360   16.2790   12.4440 O   0  0  0  0  0  0  0  0  0  0  0  0
   26.1960   15.7200    5.8230 N   0  0  0  0  0  0  0  0  0  0  0  0
   26.7110   15.6100    4.5780 C   0  0  0  0  0  0  0  0  0  0  0  0
   24.0650   11.7550    4.3250 C   0  0  0  0  0  0  0  0  0  0  0  0
   24.3300   10.8360    5.2300 N   0  0  0  0  0  0  0  0  0  0  0  0
   24.7464    9.1845    8.6779 H   0  0  0  0  0  0  0  0  0  0  0  0
   23.8606    9.4192    7.1330 H   0  0  0  0  0  0  0  0  0  0  0  0
   25.4708    8.6230    7.1330 H   0  0  0  0  0  0  0  0  0  0  0  0
   25.3191   11.3673    8.3178 H   0  0  0  0  0  0  0  0  0  0  0  0
   26.5998   10.5756    7.2914 H   0  0  0  0  0  0  0  0  0  0  0  0
   25.7494   13.5891    6.4700 H   0  0  0  0  0  0  0  0  0  0  0  0
   26.0138   14.3909    1.4419 H   0  0  0  0  0  0  0  0  0  0  0  0
   28.2749   15.3059    1.0475 H   0  0  0  0  0  0  0  0  0  0  0  0
   29.7053   17.1197    5.0375 H   0  0  0  0  0  0  0  0  0  0  0  0
   28.7528   17.3458    7.3328 H   0  0  0  0  0  0  0  0  0  0  0  0
   24.7128   14.9764    7.5971 H   0  0  0  0  0  0  0  0  0  0  0  0
   23.5418   15.1067    9.8068 H   0  0  0  0  0  0  0  0  0  0  0  0
   27.6633   17.8714    8.9502 H   0  0  0  0  0  0  0  0  0  0  0  0
   27.3531   17.8366   12.0051 H   0  0  0  0  0  0  0  0  0  0  0  0
   26.5171   19.2202   11.3385 H   0  0  0  0  0  0  0  0  0  0  0  0
   24.2784   18.0188   14.2081 H   0  0  0  0  0  0  0  0  0  0  0  0
   26.0546   16.4260   14.6455 H   0  0  0  0  0  0  0  0  0  0  0  0
   27.2956   17.6870   14.3407 H   0  0  0  0  0  0  0  0  0  0  0  0
   25.1386   17.7279   16.5099 H   0  0  0  0  0  0  0  0  0  0  0  0
   26.9152   17.4723   16.7403 H   0  0  0  0  0  0  0  0  0  0  0  0
   26.2633   21.2214   15.1972 H   0  0  0  0  0  0  0  0  0  0  0  0
   23.5214   11.5714    3.3865 H   0  0  0  0  0  0  0  0  0  0  0  0
  1  2  1  0
  2  3  1  0
  3  4  2  0
  4  5  1  0
  5  6  1  0
  6  7  2  0
  6  8  2  0
  6  9  1  0
  9 10  2  0
 10 11  1  0
 11 12  2  0
 12 13  1  0
 13 14  2  0
 14 15  1  0
 15 16  2  0
 16 17  1  0
 17 18  2  0
 18 19  1  0
 19 20  2  0
 20 21  1  0
 21 22  2  0
 21 23  1  0
 23 24  1  0
 24 25  1  0
 25 26  1  0
 26 27  1  0
 27 28  1  0
 28 29  2  0
 28 30  1  0
 30 31  1  0
 31 32  2  0
 24 33  1  0
 33 34  2  0
 16 35  1  0
 35 36  2  0
  5 37  1  0
 37 38  2  0
 38  3  1  0
 36  9  1  0
 36 13  1  0
 22 17  1  0
 31 25  1  0
 33 20  1  0
  1 39  1  0
  1 40  1  0
  1 41  1  0
  2 42  1  0
  2 43  1  0
  4 44  1  0
 10 45  1  0
 11 46  1  0
 14 47  1  0
 15 48  1  0
 18 49  1  0
 19 50  1  0
 22 51  1  0
 23 52  1  0
 23 53  1  0
 25 54  1  1
 26 55  1  0
 26 56  1  0
 27 57  1  0
 27 58  1  0
 30 59  1  0
 37 60  1  0
M  END
>  <meeko>  (866) 
{"is_sidechain": [true], "free_energy": -11.25, "intermolecular_energy": 0.0, "internal_energy": -11.25, "cluster_size": 6, "cluster_id": 2, "rank_in_cluster": 1}

>  <_RMSD_MCS_to_ref>  (866) 
0.8563263266873077

$$$$
ligand
     RDKit          3D

 54 58  0  0  0  0  0  0  0  0999 V2000
   24.8540    9.4020    7.6050 C   0  0  0  0  0  0  0  0  0  0  0  0
   25.5230   10.7550    7.4270 C   0  0  0  0  0  0  0  0  0  0  0  0
   26.9960   10.6340    7.2520 C   0  0  0  0  0  0  0  0  0  0  0  0
   27.7910   11.1030    6.2250 C   0  0  0  0  0  0  0  0  0  0  0  0
   29.0500   10.6870    6.5590 N   0  0  0  0  0  0  0  0  0  0  0  0
   30.4760   11.1620    5.7880 S   0  0  0  0  0  6  0  0  0  0  0  0
   30.1490   11.1100    4.3750 O   0  0  0  0  0  0  0  0  0  0  0  0
   31.5110   10.3110    6.3460 O   0  0  0  0  0  0  0  0  0  0  0  0
   30.7640   12.7240    6.1840 O   0  0  0  0  0  0  0  0  0  0  0  0
   29.7330   13.4880    6.6670 C   0  0  0  0  0  0  0  0  0  0  0  0
   28.8330   14.1090    5.7790 C   0  0  0  0  0  0  0  0  0  0  0  0
   27.7790   14.8900    6.2610 C   0  0  0  0  0  0  0  0  0  0  0  0
   27.6600   15.0060    7.6270 C   0  0  0  0  0  0  0  0  0  0  0  0
   28.5480   14.3640    8.5360 C   0  0  0  0  0  0  0  0  0  0  0  0
   29.5890   13.5880    8.0550 C   0  0  0  0  0  0  0  0  0  0  0  0
   28.2080   14.6370   10.0170 C   0  0  0  0  0  0  0  0  0  0  0  0
   27.0240   15.5050    9.7750 C   0  0  0  0  0  0  0  0  0  0  0  0
   26.0510   16.2310   10.4770 C   0  0  0  0  0  0  0  0  0  0  0  0
   25.9040   16.3520   11.9330 C   0  0  0  0  0  0  0  0  0  0  0  0
   25.9190   15.3860   12.6920 O   0  0  0  0  0  0  0  0  0  0  0  0
   25.7390   17.6470   12.3620 N   0  0  0  0  0  0  0  0  0  0  0  0
   25.4130   17.9830   13.7330 C   0  0  1  0  0  0  0  0  0  0  0  0
   26.3000   17.2410   14.7270 C   0  0  0  0  0  0  0  0  0  0  0  0
   25.9240   17.6430   16.1440 C   0  0  0  0  0  0  0  0  0  0  0  0
   26.0080   19.1390   16.3300 C   0  0  0  0  0  0  0  0  0  0  0  0
   26.3240   19.6540   17.3980 O   0  0  0  0  0  0  0  0  0  0  0  0
   25.6740   19.9120   15.2470 N   0  0  0  0  0  0  0  0  0  0  0  0
   25.5800   19.4920   13.9410 C   0  0  0  0  0  0  0  0  0  0  0  0
   25.6060   20.3030   13.0170 O   0  0  0  0  0  0  0  0  0  0  0  0
   25.2010   16.8430    9.6080 N   0  0  0  0  0  0  0  0  0  0  0  0
   25.6560   16.4920    8.3750 N   0  0  0  0  0  0  0  0  0  0  0  0
   26.7370   15.6980    8.4540 C   0  0  0  0  0  0  0  0  0  0  0  0
   29.0070   10.0630    7.7650 C   0  0  0  0  0  0  0  0  0  0  0  0
   27.7670    9.9960    8.2050 N   0  0  0  0  0  0  0  0  0  0  0  0
   24.7464    9.1845    8.6779 H   0  0  0  0  0  0  0  0  0  0  0  0
   23.8606    9.4192    7.1330 H   0  0  0  0  0  0  0  0  0  0  0  0
   25.4708    8.6230    7.1330 H   0  0  0  0  0  0  0  0  0  0  0  0
   25.0996   11.2456    6.5381 H   0  0  0  0  0  0  0  0  0  0  0  0
   25.3379   11.3460    8.3361 H   0  0  0  0  0  0  0  0  0  0  0  0
   27.4821   11.6794    5.3405 H   0  0  0  0  0  0  0  0  0  0  0  0
   28.9612   13.9778    4.6944 H   0  0  0  0  0  0  0  0  0  0  0  0
   27.0757   15.3898    5.5787 H   0  0  0  0  0  0  0  0  0  0  0  0
   30.2772   13.0694    8.7388 H   0  0  0  0  0  0  0  0  0  0  0  0
   27.9514   13.7189   10.5659 H   0  0  0  0  0  0  0  0  0  0  0  0
   29.0117   15.0624   10.6360 H   0  0  0  0  0  0  0  0  0  0  0  0
   25.8518   18.4108   11.6802 H   0  0  0  0  0  0  0  0  0  0  0  0
   24.3711   17.6801   13.9137 H   0  0  0  0  0  0  0  0  0  0  0  0
   26.1599   16.1569   14.6045 H   0  0  0  0  0  0  0  0  0  0  0  0
   27.3530   17.4992   14.5410 H   0  0  0  0  0  0  0  0  0  0  0  0
   24.8946   17.3136   16.3488 H   0  0  0  0  0  0  0  0  0  0  0  0
   26.6306   17.1663   16.8394 H   0  0  0  0  0  0  0  0  0  0  0  0
   25.4738   20.9056   15.4303 H   0  0  0  0  0  0  0  0  0  0  0  0
   25.2252   16.7971    7.4905 H   0  0  0  0  0  0  0  0  0  0  0  0
   29.8843    9.6690    8.2991 H   0  0  0  0  0  0  0  0  0  0  0  0
  1  2  1  0
  2  3  1  0
  3  4  2  0
  4  5  1  0
  5  6  1  0
  6  7  2  0
  6  8  2  0
  6  9  1  0
  9 10  1  0
 10 11  2  0
 11 12  1  0
 12 13  2  0
 13 14  1  0
 14 15  2  0
 14 16  1  0
 16 17  1  0
 17 18  1  0
 18 19  1  0
 19 20  2  0
 19 21  1  0
 21 22  1  0
 22 23  1  0
 23 24  1  0
 24 25  1  0
 25 26  2  0
 25 27  1  0
 27 28  1  0
 28 29  2  0
 18 30  2  0
 30 31  1  0
 31 32  1  0
  5 33  1  0
 33 34  2  0
 34  3  1  0
 15 10  1  0
 32 17  2  0
 32 13  1  0
 28 22  1  0
  1 35  1  0
  1 36  1  0
  1 37  1  0
  2 38  1  0
  2 39  1  0
  4 40  1  0
 11 41  1  0
 12 42  1  0
 15 43  1  0
 16 44  1  0
 16 45  1  0
 21 46  1  0
 22 47  1  1
 23 48  1  0
 23 49  1  0
 24 50  1  0
 24 51  1  0
 27 52  1  0
 31 53  1  0
 33 54  1  0
M  END
>  <meeko>  (867) 
{"is_sidechain": [true], "free_energy": -11.25, "intermolecular_energy": 0.0, "internal_energy": -11.25, "cluster_size": 14, "cluster_id": 1, "rank_in_cluster": 1}

>  <_RMSD_MCS_to_ref>  (867) 
1.156817089162231

$$$$
ligand
     RDKit          3D

 52 56  0  0  0  0  0  0  0  0999 V2000
   24.8710    9.6160    7.7820 C   0  0  0  0  0  0  0  0  0  0  0  0
   25.4240   10.9650    7.3490 C   0  0  0  0  0  0  0  0  0  0  0  0
   26.9050   10.9420    7.2060 C   0  0  0  0  0  0  0  0  0  0  0  0
   27.6630   10.9980    6.0530 C   0  0  0  0  0  0  0  0  0  0  0  0
   28.9550   10.9710    6.4980 N   0  0  0  0  0  0  0  0  0  0  0  0
   30.3260   11.3470    5.5840 S   0  0  0  0  0  6  0  0  0  0  0  0
   31.4310   10.8420    6.3760 O   0  0  0  0  0  0  0  0  0  0  0  0
   30.0530   10.8230    4.2590 O   0  0  0  0  0  0  0  0  0  0  0  0
   30.4540   12.9800    5.5120 O   0  0  0  0  0  0  0  0  0  0  0  0
   29.3240   13.7440    5.6340 C   0  0  0  0  0  0  0  0  0  0  0  0
   28.6970   14.1670    4.4710 C   0  0  0  0  0  0  0  0  0  0  0  0
   27.5590   14.9730    4.5400 C   0  0  0  0  0  0  0  0  0  0  0  0
   27.0480   15.3360    5.8030 C   0  0  0  0  0  0  0  0  0  0  0  0
   25.6680   16.3310    6.0920 S   0  0  0  0  0  0  0  0  0  0  0  0
   25.8730   16.1640    7.8090 C   0  0  0  0  0  0  0  0  0  0  0  0
   25.1790   16.6520    8.9550 C   0  0  0  0  0  0  0  0  0  0  0  0
   25.7660   16.2170   10.1280 C   0  0  0  0  0  0  0  0  0  0  0  0
   25.3050   16.5350   11.4760 C   0  0  0  0  0  0  0  0  0  0  0  0
   24.3400   15.9800   11.9980 O   0  0  0  0  0  0  0  0  0  0  0  0
   26.0070   17.5110   12.1470 N   0  0  0  0  0  0  0  0  0  0  0  0
   25.5720   18.0380   13.4290 C   0  0  1  0  0  0  0  0  0  0  0  0
   25.9350   17.1120   14.5850 C   0  0  0  0  0  0  0  0  0  0  0  0
   25.4840   17.7350   15.8960 C   0  0  0  0  0  0  0  0  0  0  0  0
   26.0680   19.1170   16.0760 C   0  0  0  0  0  0  0  0  0  0  0  0
   26.3710   19.5650   17.1780 O   0  0  0  0  0  0  0  0  0  0  0  0
   26.2190   19.8730   14.9410 N   0  0  0  0  0  0  0  0  0  0  0  0
   26.2380   19.3980   13.6530 C   0  0  0  0  0  0  0  0  0  0  0  0
   26.7520   20.0480   12.7440 O   0  0  0  0  0  0  0  0  0  0  0  0
   27.1430   15.2280    9.8540 S   0  0  0  0  0  0  0  0  0  0  0  0
   26.9470   15.3850    8.1250 C   0  0  0  0  0  0  0  0  0  0  0  0
   27.6550   14.8890    6.9780 C   0  0  0  0  0  0  0  0  0  0  0  0
   28.8050   14.0670    6.8890 C   0  0  0  0  0  0  0  0  0  0  0  0
   28.9560   10.9290    7.8560 C   0  0  0  0  0  0  0  0  0  0  0  0
   27.7230   10.8950    8.3180 N   0  0  0  0  0  0  0  0  0  0  0  0
   24.8497    9.5640    8.8806 H   0  0  0  0  0  0  0  0  0  0  0  0
   23.8507    9.4948    7.3893 H   0  0  0  0  0  0  0  0  0  0  0  0
   25.5127    8.8135    7.3893 H   0  0  0  0  0  0  0  0  0  0  0  0
   24.9782   11.2371    6.3809 H   0  0  0  0  0  0  0  0  0  0  0  0
   25.1697   11.7010    8.1259 H   0  0  0  0  0  0  0  0  0  0  0  0
   27.3078   11.0520    5.0133 H   0  0  0  0  0  0  0  0  0  0  0  0
   29.0976   13.8665    3.4916 H   0  0  0  0  0  0  0  0  0  0  0  0
   27.0668   15.3207    3.6198 H   0  0  0  0  0  0  0  0  0  0  0  0
   24.2874   17.2947    8.9109 H   0  0  0  0  0  0  0  0  0  0  0  0
   26.8710   17.8805   11.7252 H   0  0  0  0  0  0  0  0  0  0  0  0
   24.4761   18.1299   13.4043 H   0  0  0  0  0  0  0  0  0  0  0  0
   25.4341   16.1422   14.4488 H   0  0  0  0  0  0  0  0  0  0  0  0
   27.0246   16.9629   14.6063 H   0  0  0  0  0  0  0  0  0  0  0  0
   24.3863   17.8064   15.9000 H   0  0  0  0  0  0  0  0  0  0  0  0
   25.8353   17.0990   16.7219 H   0  0  0  0  0  0  0  0  0  0  0  0
   26.3280   20.8895   15.0667 H   0  0  0  0  0  0  0  0  0  0  0  0
   29.2856   13.6859    7.8021 H   0  0  0  0  0  0  0  0  0  0  0  0
   29.8603   10.9241    8.4822 H   0  0  0  0  0  0  0  0  0  0  0  0
  1  2  1  0
  2  3  1  0
  3  4  2  0
  4  5  1  0
  5  6  1  0
  6  7  2  0
  6  8  2  0
  6  9  1  0
  9 10  1  0
 10 11  2  0
 11 12  1  0
 12 13  2  0
 13 14  1  0
 14 15  1  0
 15 16  1  0
 16 17  2  0
 17 18  1  0
 18 19  2  0
 18 20  1  0
 20 21  1  0
 21 22  1  0
 22 23  1  0
 23 24  1  0
 24 25  2  0
 24 26  1  0
 26 27  1  0
 27 28  2  0
 17 29  1  0
 29 30  1  0
 30 31  1  0
 31 32  2  0
  5 33  1  0
 33 34  2  0
 34  3  1  0
 32 10  1  0
 31 13  1  0
 30 15  2  0
 27 21  1  0
  1 35  1  0
  1 36  1  0
  1 37  1  0
  2 38  1  0
  2 39  1  0
  4 40  1  0
 11 41  1  0
 12 42  1  0
 16 43  1  0
 20 44  1  0
 21 45  1  6
 22 46  1  0
 22 47  1  0
 23 48  1  0
 23 49  1  0
 26 50  1  0
 32 51  1  0
 33 52  1  0
M  END
>  <meeko>  (868) 
{"is_sidechain": [true], "free_energy": -11.25, "intermolecular_energy": 0.0, "internal_energy": -11.25, "cluster_size": 20, "cluster_id": 1, "rank_in_cluster": 1}

>  <_RMSD_MCS_to_ref>  (868) 
1.4180075614905734

$$$$
ligand
     RDKit          3D

 64 68  0  0  0  0  0  0  0  0999 V2000
   24.8710    9.6160    7.7820 C   0  0  0  0  0  0  0  0  0  0  0  0
   25.4240   10.9650    7.3490 C   0  0  0  0  0  0  0  0  0  0  0  0
   26.6090   11.3710    8.1520 C   0  0  0  0  0  0  0  0  0  0  0  0
   27.8900   11.6590    7.7260 C   0  0  0  0  0  0  0  0  0  0  0  0
   28.5640   11.9620    8.8740 N   0  0  0  0  0  0  0  0  0  0  0  0
   30.1440   12.5310    8.9890 S   0  0  0  0  0  6  0  0  0  0  0  0
   30.1330   13.3260   10.2050 O   0  0  0  0  0  0  0  0  0  0  0  0
   30.9960   11.3710    8.8260 O   0  0  0  0  0  0  0  0  0  0  0  0
   30.3760   13.6030    7.5800 C   0  0  0  0  0  0  0  0  0  0  0  0
   31.6560   13.6170    6.9980 C   0  0  0  0  0  0  0  0  0  0  0  0
   31.8900   14.3230    5.8230 C   0  0  0  0  0  0  0  0  0  0  0  0
   30.8470   15.0040    5.2100 C   0  0  0  0  0  0  0  0  0  0  0  0
   29.5640   15.0190    5.7830 C   0  0  0  0  0  0  0  0  0  0  0  0
   29.3240   14.3700    7.0200 C   0  0  0  0  0  0  0  0  0  0  0  0
   27.9330   14.5090    7.6490 C   0  0  1  0  0  0  0  0  0  0  0  0
   27.9760   15.0820    9.0730 C   0  0  0  0  0  0  0  0  0  0  0  0
   29.0360   15.1720    9.6880 O   0  0  0  0  0  0  0  0  0  0  0  0
   26.7340   15.4760    9.5360 N   0  0  0  0  0  0  0  0  0  0  0  0
   26.4390   16.1290   10.7490 C   0  0  0  0  0  0  0  0  0  0  0  0
   25.6520   15.5770   11.7580 C   0  0  0  0  0  0  0  0  0  0  0  0
   25.4140   16.2860   12.9420 C   0  0  0  0  0  0  0  0  0  0  0  0
   25.9630   17.5600   13.1410 C   0  0  0  0  0  0  0  0  0  0  0  0
   25.6900   18.3560   14.4060 C   0  0  1  0  0  0  0  0  0  0  0  0
   26.5070   17.7960   15.5760 C   0  0  0  0  0  0  0  0  0  0  0  0
   26.1930   18.5740   16.8430 C   0  0  0  0  0  0  0  0  0  0  0  0
   26.4590   20.0470   16.6540 C   0  0  0  0  0  0  0  0  0  0  0  0
   26.6910   20.7980   17.5960 O   0  0  0  0  0  0  0  0  0  0  0  0
   26.3550   20.5270   15.3730 N   0  0  0  0  0  0  0  0  0  0  0  0
   25.9430   19.8550   14.2460 C   0  0  0  0  0  0  0  0  0  0  0  0
   25.7340   20.4800   13.2080 O   0  0  0  0  0  0  0  0  0  0  0  0
   26.7580   18.1080   12.1270 C   0  0  0  0  0  0  0  0  0  0  0  0
   26.9960   17.3970   10.9460 C   0  0  0  0  0  0  0  0  0  0  0  0
   26.9840   15.4540    6.8750 C   0  0  0  0  0  0  0  0  0  0  0  0
   27.1320   15.3150    5.4240 N   0  0  0  0  0  0  0  0  0  0  0  0
   28.4720   15.7740    5.0560 C   0  0  0  0  0  0  0  0  0  0  0  0
   27.7130   11.8770    9.9280 C   0  0  0  0  0  0  0  0  0  0  0  0
   26.5120   11.5190    9.5220 N   0  0  0  0  0  0  0  0  0  0  0  0
   24.8497    9.5640    8.8806 H   0  0  0  0  0  0  0  0  0  0  0  0
   23.8507    9.4948    7.3893 H   0  0  0  0  0  0  0  0  0  0  0  0
   25.5127    8.8135    7.3893 H   0  0  0  0  0  0  0  0  0  0  0  0
   25.7173   10.9043    6.2906 H   0  0  0  0  0  0  0  0  0  0  0  0
   24.6372   11.7179    7.5041 H   0  0  0  0  0  0  0  0  0  0  0  0
   28.2788   11.6471    6.6971 H   0  0  0  0  0  0  0  0  0  0  0  0
   32.4788   13.0651    7.4760 H   0  0  0  0  0  0  0  0  0  0  0  0
   32.8972   14.3418    5.3812 H   0  0  0  0  0  0  0  0  0  0  0  0
   31.0269   15.5378    4.2652 H   0  0  0  0  0  0  0  0  0  0  0  0
   27.5602   13.4743    7.6297 H   0  0  0  0  0  0  0  0  0  0  0  0
   25.9323   15.2682    8.9236 H   0  0  0  0  0  0  0  0  0  0  0  0
   25.2144   14.5768   11.6234 H   0  0  0  0  0  0  0  0  0  0  0  0
   24.7875   15.8367   13.7266 H   0  0  0  0  0  0  0  0  0  0  0  0
   24.6166   18.2443   14.6188 H   0  0  0  0  0  0  0  0  0  0  0  0
   26.2517   16.7365   15.7255 H   0  0  0  0  0  0  0  0  0  0  0  0
   27.5790   17.8907   15.3483 H   0  0  0  0  0  0  0  0  0  0  0  0
   25.1332   18.4301   17.0999 H   0  0  0  0  0  0  0  0  0  0  0  0
   26.8399   18.2024   17.6514 H   0  0  0  0  0  0  0  0  0  0  0  0
   26.6183   21.5137   15.2385 H   0  0  0  0  0  0  0  0  0  0  0  0
   27.1994   19.1067   12.2603 H   0  0  0  0  0  0  0  0  0  0  0  0
   27.6287   17.8403   10.1629 H   0  0  0  0  0  0  0  0  0  0  0  0
   25.9456   15.2173    7.1501 H   0  0  0  0  0  0  0  0  0  0  0  0
   27.2419   16.4888    7.1446 H   0  0  0  0  0  0  0  0  0  0  0  0
   27.0151   14.3278    5.1544 H   0  0  0  0  0  0  0  0  0  0  0  0
   28.6076   15.6345    3.9733 H   0  0  0  0  0  0  0  0  0  0  0  0
   28.5520   16.8335    5.3408 H   0  0  0  0  0  0  0  0  0  0  0  0
   27.9875   12.0787   10.9739 H   0  0  0  0  0  0  0  0  0  0  0  0
  1  2  1  0
  2  3  1  0
  3  4  2  0
  4  5  1  0
  5  6  1  0
  6  7  2  0
  6  8  2  0
  6  9  1  0
  9 10  2  0
 10 11  1  0
 11 12  2  0
 12 13  1  0
 13 14  2  0
 14 15  1  0
 15 16  1  0
 16 17  2  0
 16 18  1  0
 18 19  1  0
 19 20  2  0
 20 21  1  0
 21 22  2  0
 22 23  1  0
 23 24  1  0
 24 25  1  0
 25 26  1  0
 26 27  2  0
 26 28  1  0
 28 29  1  0
 29 30  2  0
 22 31  1  0
 31 32  2  0
 15 33  1  0
 33 34  1  0
 34 35  1  0
  5 36  1  0
 36 37  2  0
 37  3  1  0
 14  9  1  0
 32 19  1  0
 35 13  1  0
 29 23  1  0
  1 38  1  0
  1 39  1  0
  1 40  1  0
  2 41  1  0
  2 42  1  0
  4 43  1  0
 10 44  1  0
 11 45  1  0
 12 46  1  0
 15 47  1  1
 18 48  1  0
 20 49  1  0
 21 50  1  0
 23 51  1  1
 24 52  1  0
 24 53  1  0
 25 54  1  0
 25 55  1  0
 28 56  1  0
 31 57  1  0
 32 58  1  0
 33 59  1  0
 33 60  1  0
 34 61  1  0
 35 62  1  0
 35 63  1  0
 36 64  1  0
M  END
>  <meeko>  (869) 
{"is_sidechain": [true], "free_energy": -11.25, "intermolecular_energy": 0.0, "internal_energy": -11.25, "cluster_size": 9, "cluster_id": 1, "rank_in_cluster": 1}

>  <_RMSD_MCS_to_ref>  (869) 
0.8206572823048619

$$$$
ligand
     RDKit          3D

 47 50  0  0  0  0  0  0  0  0999 V2000
   24.8710    9.6160    7.7820 C   0  0  0  0  0  0  0  0  0  0  0  0
   25.4240   10.9650    7.3490 C   0  0  0  0  0  0  0  0  0  0  0  0
   26.5470   11.4140    8.2150 C   0  0  0  0  0  0  0  0  0  0  0  0
   27.4680   12.4170    7.9890 C   0  0  0  0  0  0  0  0  0  0  0  0
   28.2840   12.3730    9.0850 N   0  0  0  0  0  0  0  0  0  0  0  0
   29.5290   13.4510    9.4300 S   0  0  0  0  0  6  0  0  0  0  0  0
   30.6010   13.1320    8.5040 O   0  0  0  0  0  0  0  0  0  0  0  0
   29.7250   13.2930   10.8610 O   0  0  0  0  0  0  0  0  0  0  0  0
   29.0150   14.9720    9.1750 O   0  0  0  0  0  0  0  0  0  0  0  0
   27.7210   15.3110    9.4810 C   0  0  0  0  0  0  0  0  0  0  0  0
   26.8090   15.3010    8.4380 C   0  0  0  0  0  0  0  0  0  0  0  0
   25.5040   15.6950    8.7020 C   0  0  0  0  0  0  0  0  0  0  0  0
   25.1640   16.0980    9.9910 C   0  0  0  0  0  0  0  0  0  0  0  0
   26.1470   16.0950   10.9760 C   0  0  0  0  0  0  0  0  0  0  0  0
   25.8320   16.5310   12.3250 C   0  0  0  0  0  0  0  0  0  0  0  0
   25.3810   17.7750   12.7030 C   0  0  0  0  0  0  0  0  0  0  0  0
   25.2440   17.6850   14.0540 N   0  0  0  0  0  0  0  0  0  0  0  0
   24.7700   18.7110   14.9630 C   0  0  1  0  0  0  0  0  0  0  0  0
   24.9970   18.3840   16.4400 C   0  0  0  0  0  0  0  0  0  0  0  0
   26.4410   18.6000   16.8710 C   0  0  0  0  0  0  0  0  0  0  0  0
   26.9410   19.9700   16.4840 C   0  0  0  0  0  0  0  0  0  0  0  0
   27.8200   20.5500   17.1130 O   0  0  0  0  0  0  0  0  0  0  0  0
   26.3860   20.5340   15.3640 N   0  0  0  0  0  0  0  0  0  0  0  0
   25.3500   20.0600   14.5940 C   0  0  0  0  0  0  0  0  0  0  0  0
   24.9270   20.7220   13.6470 O   0  0  0  0  0  0  0  0  0  0  0  0
   25.5660   16.4560   14.4950 N   0  0  0  0  0  0  0  0  0  0  0  0
   25.9340   15.7380   13.4420 N   0  0  0  0  0  0  0  0  0  0  0  0
   27.4310   15.7090   10.7340 N   0  0  0  0  0  0  0  0  0  0  0  0
   27.8050   11.4510    9.9600 C   0  0  0  0  0  0  0  0  0  0  0  0
   26.7730   10.8140    9.4410 N   0  0  0  0  0  0  0  0  0  0  0  0
   24.8497    9.5640    8.8806 H   0  0  0  0  0  0  0  0  0  0  0  0
   23.8507    9.4948    7.3893 H   0  0  0  0  0  0  0  0  0  0  0  0
   25.5127    8.8135    7.3893 H   0  0  0  0  0  0  0  0  0  0  0  0
   25.7854   10.8842    6.3132 H   0  0  0  0  0  0  0  0  0  0  0  0
   24.6148   11.7054    7.4330 H   0  0  0  0  0  0  0  0  0  0  0  0
   27.5309   13.0956    7.1256 H   0  0  0  0  0  0  0  0  0  0  0  0
   27.1109   14.9891    7.4273 H   0  0  0  0  0  0  0  0  0  0  0  0
   24.7481   15.6889    7.9029 H   0  0  0  0  0  0  0  0  0  0  0  0
   24.1367   16.4131   10.2263 H   0  0  0  0  0  0  0  0  0  0  0  0
   25.1776   18.6439   12.0599 H   0  0  0  0  0  0  0  0  0  0  0  0
   23.6774   18.7494   14.8419 H   0  0  0  0  0  0  0  0  0  0  0  0
   24.3471   19.0305   17.0481 H   0  0  0  0  0  0  0  0  0  0  0  0
   24.7608   17.3197   16.5862 H   0  0  0  0  0  0  0  0  0  0  0  0
   26.5066   18.4924   17.9638 H   0  0  0  0  0  0  0  0  0  0  0  0
   27.0659   17.8511   16.3624 H   0  0  0  0  0  0  0  0  0  0  0  0
   26.7982   21.4278   15.0604 H   0  0  0  0  0  0  0  0  0  0  0  0
   28.2196   11.2620   10.9612 H   0  0  0  0  0  0  0  0  0  0  0  0
  1  2  1  0
  2  3  1  0
  3  4  2  0
  4  5  1  0
  5  6  1  0
  6  7  2  0
  6  8  2  0
  6  9  1  0
  9 10  1  0
 10 11  2  0
 11 12  1  0
 12 13  2  0
 13 14  1  0
 14 15  1  0
 15 16  2  0
 16 17  1  0
 17 18  1  0
 18 19  1  0
 19 20  1  0
 20 21  1  0
 21 22  2  0
 21 23  1  0
 23 24  1  0
 24 25  2  0
 17 26  1  0
 26 27  2  0
 14 28  2  0
  5 29  1  0
 29 30  2  0
 30  3  1  0
 28 10  1  0
 27 15  1  0
 24 18  1  0
  1 31  1  0
  1 32  1  0
  1 33  1  0
  2 34  1  0
  2 35  1  0
  4 36  1  0
 11 37  1  0
 12 38  1  0
 13 39  1  0
 16 40  1  0
 18 41  1  1
 19 42  1  0
 19 43  1  0
 20 44  1  0
 20 45  1  0
 23 46  1  0
 29 47  1  0
M  END
>  <meeko>  (870) 
{"is_sidechain": [true], "free_energy": -11.25, "intermolecular_energy": 0.0, "internal_energy": -11.25, "cluster_size": 13, "cluster_id": 1, "rank_in_cluster": 1}

>  <_RMSD_MCS_to_ref>  (870) 
0.7853757062705718

$$$$
ligand
     RDKit          3D

 44 47  0  0  0  0  0  0  0  0999 V2000
   24.8710    9.6160    7.7820 C   0  0  0  0  0  0  0  0  0  0  0  0
   25.4240   10.9650    7.3490 C   0  0  0  0  0  0  0  0  0  0  0  0
   26.5540   11.4110    8.2090 C   0  0  0  0  0  0  0  0  0  0  0  0
   27.6250   12.2210    7.8820 C   0  0  0  0  0  0  0  0  0  0  0  0
   28.3460   12.3030    9.0380 N   0  0  0  0  0  0  0  0  0  0  0  0
   29.7460   13.2170    9.2670 S   0  0  0  0  0  6  0  0  0  0  0  0
   30.5630   12.8760    8.1150 O   0  0  0  0  0  0  0  0  0  0  0  0
   30.2040   12.9110   10.6100 O   0  0  0  0  0  0  0  0  0  0  0  0
   29.4010   14.8010    9.1650 O   0  0  0  0  0  0  0  0  0  0  0  0
   28.1750   15.2580    9.3630 C   0  0  0  0  0  0  0  0  0  0  0  0
   27.7900   15.8090   10.4860 N   0  0  0  0  0  0  0  0  0  0  0  0
   26.4390   16.1140   10.4190 C   0  0  0  0  0  0  0  0  0  0  0  0
   25.7970   16.6860   11.5960 C   0  0  0  0  0  0  0  0  0  0  0  0
   26.3100   17.5880   12.4960 C   0  0  0  0  0  0  0  0  0  0  0  0
   25.3090   17.7500   13.4050 N   0  0  0  0  0  0  0  0  0  0  0  0
   25.3340   18.4940   14.6530 C   0  0  1  0  0  0  0  0  0  0  0  0
   26.2900   17.8430   15.6540 C   0  0  0  0  0  0  0  0  0  0  0  0
   26.2870   18.6280   16.9550 C   0  0  0  0  0  0  0  0  0  0  0  0
   26.6450   20.0750   16.7190 C   0  0  0  0  0  0  0  0  0  0  0  0
   27.1260   20.7850   17.5960 O   0  0  0  0  0  0  0  0  0  0  0  0
   26.3340   20.5860   15.4830 N   0  0  0  0  0  0  0  0  0  0  0  0
   25.6960   19.9540   14.4370 C   0  0  0  0  0  0  0  0  0  0  0  0
   25.4010   20.5930   13.4290 O   0  0  0  0  0  0  0  0  0  0  0  0
   24.2510   16.9680   13.1080 N   0  0  0  0  0  0  0  0  0  0  0  0
   24.5360   16.3210   11.9820 N   0  0  0  0  0  0  0  0  0  0  0  0
   25.8270   15.8080    9.2220 C   0  0  0  0  0  0  0  0  0  0  0  0
   26.9670   15.0910    8.1590 S   0  0  0  0  0  0  0  0  0  0  0  0
   27.7370   11.5600    9.9990 C   0  0  0  0  0  0  0  0  0  0  0  0
   26.6330   11.0130    9.5300 N   0  0  0  0  0  0  0  0  0  0  0  0
   24.8497    9.5640    8.8806 H   0  0  0  0  0  0  0  0  0  0  0  0
   23.8507    9.4948    7.3893 H   0  0  0  0  0  0  0  0  0  0  0  0
   25.5127    8.8135    7.3893 H   0  0  0  0  0  0  0  0  0  0  0  0
   25.7786   10.8859    6.3107 H   0  0  0  0  0  0  0  0  0  0  0  0
   24.6166   11.7064    7.4405 H   0  0  0  0  0  0  0  0  0  0  0  0
   27.8457   12.6916    6.9126 H   0  0  0  0  0  0  0  0  0  0  0  0
   27.2997   18.0681   12.4850 H   0  0  0  0  0  0  0  0  0  0  0  0
   24.3164   18.4661   15.0698 H   0  0  0  0  0  0  0  0  0  0  0  0
   25.9657   16.8103   15.8500 H   0  0  0  0  0  0  0  0  0  0  0  0
   27.3070   17.8392   15.2348 H   0  0  0  0  0  0  0  0  0  0  0  0
   25.2842   18.5749   17.4040 H   0  0  0  0  0  0  0  0  0  0  0  0
   27.0370   18.1887   17.6291 H   0  0  0  0  0  0  0  0  0  0  0  0
   26.6121   21.5637   15.3166 H   0  0  0  0  0  0  0  0  0  0  0  0
   24.7693   15.9950    8.9848 H   0  0  0  0  0  0  0  0  0  0  0  0
   28.1127   11.4327   11.0250 H   0  0  0  0  0  0  0  0  0  0  0  0
  1  2  1  0
  2  3  1  0
  3  4  2  0
  4  5  1  0
  5  6  1  0
  6  7  2  0
  6  8  2  0
  6  9  1  0
  9 10  1  0
 10 11  2  0
 11 12  1  0
 12 13  1  0
 13 14  2  0
 14 15  1  0
 15 16  1  0
 16 17  1  0
 17 18  1  0
 18 19  1  0
 19 20  2  0
 19 21  1  0
 21 22  1  0
 22 23  2  0
 15 24  1  0
 24 25  2  0
 12 26  2  0
 26 27  1  0
  5 28  1  0
 28 29  2  0
 29  3  1  0
 27 10  1  0
 25 13  1  0
 22 16  1  0
  1 30  1  0
  1 31  1  0
  1 32  1  0
  2 33  1  0
  2 34  1  0
  4 35  1  0
 14 36  1  0
 16 37  1  1
 17 38  1  0
 17 39  1  0
 18 40  1  0
 18 41  1  0
 21 42  1  0
 26 43  1  0
 28 44  1  0
M  END
>  <meeko>  (871) 
{"is_sidechain": [true], "free_energy": -11.25, "intermolecular_energy": 0.0, "internal_energy": -11.25, "cluster_size": 17, "cluster_id": 1, "rank_in_cluster": 1}

>  <_RMSD_MCS_to_ref>  (871) 
0.6617884858472531

$$$$
ligand
     RDKit          3D

 58 62  0  0  0  0  0  0  0  0999 V2000
   24.8540    9.4020    7.6050 C   0  0  0  0  0  0  0  0  0  0  0  0
   25.5230   10.7550    7.4270 C   0  0  0  0  0  0  0  0  0  0  0  0
   27.0040   10.6710    7.5520 C   0  0  0  0  0  0  0  0  0  0  0  0
   27.9350   11.6900    7.5450 C   0  0  0  0  0  0  0  0  0  0  0  0
   29.1350   11.0490    7.6650 N   0  0  0  0  0  0  0  0  0  0  0  0
   30.6230   11.7950    7.8830 S   0  0  0  0  0  6  0  0  0  0  0  0
   31.1180   12.0360    6.5410 O   0  0  0  0  0  0  0  0  0  0  0  0
   31.3490   10.9900    8.8450 O   0  0  0  0  0  0  0  0  0  0  0  0
   30.2930   13.3730    8.6340 C   0  0  0  0  0  0  0  0  0  0  0  0
   31.3710   14.0670    9.1920 C   0  0  0  0  0  0  0  0  0  0  0  0
   31.1710   15.3090    9.8050 C   0  0  0  0  0  0  0  0  0  0  0  0
   29.8700   15.8330    9.8760 C   0  0  0  0  0  0  0  0  0  0  0  0
   29.4560   17.0320   10.3850 N   0  0  0  0  0  0  0  0  0  0  0  0
   28.1590   17.0540   10.1910 C   0  0  0  0  0  0  0  0  0  0  0  0
   27.6830   15.8860    9.6350 N   0  0  0  0  0  0  0  0  0  0  0  0
   26.3160   15.6030    9.3760 C   0  0  0  0  0  0  0  0  0  0  0  0
   25.9410   15.2990    8.0560 C   0  0  0  0  0  0  0  0  0  0  0  0
   24.6280   14.9200    7.7670 C   0  0  0  0  0  0  0  0  0  0  0  0
   23.6780   14.8470    8.7830 C   0  0  0  0  0  0  0  0  0  0  0  0
   24.0300   15.1830   10.0890 C   0  0  0  0  0  0  0  0  0  0  0  0
   25.3400   15.5850   10.3880 C   0  0  0  0  0  0  0  0  0  0  0  0
   25.5520   16.1010   11.7610 C   0  0  0  0  0  0  0  0  0  0  0  0
   25.9320   15.3520   12.6510 O   0  0  0  0  0  0  0  0  0  0  0  0
   25.2620   17.4320   11.9420 N   0  0  0  0  0  0  0  0  0  0  0  0
   25.2800   18.0460   13.2620 C   0  0  1  0  0  0  0  0  0  0  0  0
   26.2840   17.3820   14.1970 C   0  0  0  0  0  0  0  0  0  0  0  0
   26.2900   18.1020   15.5370 C   0  0  0  0  0  0  0  0  0  0  0  0
   26.5740   19.5750   15.3650 C   0  0  0  0  0  0  0  0  0  0  0  0
   27.1900   20.2300   16.1990 O   0  0  0  0  0  0  0  0  0  0  0  0
   26.0740   20.1700   14.2340 N   0  0  0  0  0  0  0  0  0  0  0  0
   25.6490   19.5240   13.1000 C   0  0  0  0  0  0  0  0  0  0  0  0
   25.5580   20.1170   12.0240 O   0  0  0  0  0  0  0  0  0  0  0  0
   28.7990   15.1050    9.3580 C   0  0  0  0  0  0  0  0  0  0  0  0
   28.9890   13.8870    8.6800 C   0  0  0  0  0  0  0  0  0  0  0  0
   28.9170    9.7120    7.7830 C   0  0  0  0  0  0  0  0  0  0  0  0
   27.6270    9.4500    7.7110 N   0  0  0  0  0  0  0  0  0  0  0  0
   24.7464    9.1845    8.6779 H   0  0  0  0  0  0  0  0  0  0  0  0
   23.8606    9.4192    7.1330 H   0  0  0  0  0  0  0  0  0  0  0  0
   25.4708    8.6230    7.1330 H   0  0  0  0  0  0  0  0  0  0  0  0
   25.2733   11.1451    6.4293 H   0  0  0  0  0  0  0  0  0  0  0  0
   25.1544   11.4210    8.2211 H   0  0  0  0  0  0  0  0  0  0  0  0
   27.7522   12.7715    7.4618 H   0  0  0  0  0  0  0  0  0  0  0  0
   32.3815   13.6345    9.1489 H   0  0  0  0  0  0  0  0  0  0  0  0
   32.0208   15.8669   10.2253 H   0  0  0  0  0  0  0  0  0  0  0  0
   27.5197   17.9124   10.4448 H   0  0  0  0  0  0  0  0  0  0  0  0
   26.6843   15.3598    7.2474 H   0  0  0  0  0  0  0  0  0  0  0  0
   24.3430   14.6781    6.7325 H   0  0  0  0  0  0  0  0  0  0  0  0
   22.6513   14.5246    8.5549 H   0  0  0  0  0  0  0  0  0  0  0  0
   23.2768   15.1327   10.8891 H   0  0  0  0  0  0  0  0  0  0  0  0
   25.0259   18.0100   11.1229 H   0  0  0  0  0  0  0  0  0  0  0  0
   24.2828   17.9253   13.7104 H   0  0  0  0  0  0  0  0  0  0  0  0
   26.0021   16.3296   14.3486 H   0  0  0  0  0  0  0  0  0  0  0  0
   27.2879   17.4346   13.7505 H   0  0  0  0  0  0  0  0  0  0  0  0
   25.3065   17.9797   16.0143 H   0  0  0  0  0  0  0  0  0  0  0  0
   27.0823   17.6656   16.1630 H   0  0  0  0  0  0  0  0  0  0  0  0
   26.0118   21.1981   14.2363 H   0  0  0  0  0  0  0  0  0  0  0  0
   28.1488   13.3592    8.2052 H   0  0  0  0  0  0  0  0  0  0  0  0
   29.7049    8.9566    7.9192 H   0  0  0  0  0  0  0  0  0  0  0  0
  1  2  1  0
  2  3  1  0
  3  4  2  0
  4  5  1  0
  5  6  1  0
  6  7  2  0
  6  8  2  0
  6  9  1  0
  9 10  2  0
 10 11  1  0
 11 12  2  0
 12 13  1  0
 13 14  2  0
 14 15  1  0
 15 16  1  0
 16 17  2  0
 17 18  1  0
 18 19  2  0
 19 20  1  0
 20 21  2  0
 21 22  1  0
 22 23  2  0
 22 24  1  0
 24 25  1  0
 25 26  1  0
 26 27  1  0
 27 28  1  0
 28 29  2  0
 28 30  1  0
 30 31  1  0
 31 32  2  0
 15 33  1  0
 33 34  2  0
  5 35  1  0
 35 36  2  0
 36  3  1  0
 34  9  1  0
 33 12  1  0
 21 16  1  0
 31 25  1  0
  1 37  1  0
  1 38  1  0
  1 39  1  0
  2 40  1  0
  2 41  1  0
  4 42  1  0
 10 43  1  0
 11 44  1  0
 14 45  1  0
 17 46  1  0
 18 47  1  0
 19 48  1  0
 20 49  1  0
 24 50  1  0
 25 51  1  1
 26 52  1  0
 26 53  1  0
 27 54  1  0
 27 55  1  0
 30 56  1  0
 34 57  1  0
 35 58  1  0
M  END
>  <meeko>  (872) 
{"is_sidechain": [true], "free_energy": -11.24, "intermolecular_energy": 0.0, "internal_energy": -11.24, "cluster_size": 13, "cluster_id": 1, "rank_in_cluster": 1}

>  <_RMSD_MCS_to_ref>  (872) 
1.4533714826797264

$$$$
ligand
     RDKit          3D

 57 61  0  0  0  0  0  0  0  0999 V2000
   24.8710    9.6160    7.7820 C   0  0  0  0  0  0  0  0  0  0  0  0
   25.4240   10.9650    7.3490 C   0  0  0  0  0  0  0  0  0  0  0  0
   26.8420   11.1500    7.7580 C   0  0  0  0  0  0  0  0  0  0  0  0
   27.3960   12.1350    8.5500 C   0  0  0  0  0  0  0  0  0  0  0  0
   28.7240   11.8180    8.6000 N   0  0  0  0  0  0  0  0  0  0  0  0
   29.9470   12.7810    9.2570 S   0  0  0  0  0  6  0  0  0  0  0  0
   29.5270   13.0270   10.6260 O   0  0  0  0  0  0  0  0  0  0  0  0
   31.1700   12.0510    8.9820 O   0  0  0  0  0  0  0  0  0  0  0  0
   29.9970   14.1980    8.4370 O   0  0  0  0  0  0  0  0  0  0  0  0
   29.3650   14.2830    7.2220 C   0  0  0  0  0  0  0  0  0  0  0  0
   29.9800   13.6790    6.1190 C   0  0  0  0  0  0  0  0  0  0  0  0
   29.4160   13.7920    4.8510 C   0  0  0  0  0  0  0  0  0  0  0  0
   28.2390   14.5140    4.6750 C   0  0  0  0  0  0  0  0  0  0  0  0
   27.6060   15.1110    5.7740 C   0  0  0  0  0  0  0  0  0  0  0  0
   28.1410   14.9550    7.0810 C   0  0  0  0  0  0  0  0  0  0  0  0
   27.3730   15.5770    8.1760 C   0  0  0  0  0  0  0  0  0  0  0  0
   27.4610   15.1450    9.8170 S   0  0  0  0  0  0  0  0  0  0  0  0
   26.3200   16.3400   10.2850 C   0  0  0  0  0  0  0  0  0  0  0  0
   26.0120   16.4970   11.7020 C   0  0  0  0  0  0  0  0  0  0  0  0
   25.7900   15.5650   12.4720 O   0  0  0  0  0  0  0  0  0  0  0  0
   25.9690   17.8000   12.1560 N   0  0  0  0  0  0  0  0  0  0  0  0
   25.5410   18.1200   13.5090 C   0  0  1  0  0  0  0  0  0  0  0  0
   26.3120   17.3310   14.5630 C   0  0  0  0  0  0  0  0  0  0  0  0
   25.8440   17.7450   15.9490 C   0  0  0  0  0  0  0  0  0  0  0  0
   25.9780   19.2370   16.1510 C   0  0  0  0  0  0  0  0  0  0  0  0
   26.2550   19.7330   17.2380 O   0  0  0  0  0  0  0  0  0  0  0  0
   25.7440   20.0290   15.0550 N   0  0  0  0  0  0  0  0  0  0  0  0
   25.7680   19.6160   13.7460 C   0  0  0  0  0  0  0  0  0  0  0  0
   25.9510   20.4140   12.8280 O   0  0  0  0  0  0  0  0  0  0  0  0
   25.8320   17.0140    9.1780 C   0  0  0  0  0  0  0  0  0  0  0  0
   26.4180   16.5540    7.9620 C   0  0  0  0  0  0  0  0  0  0  0  0
   26.1200   17.0270    6.5730 C   0  0  0  0  0  0  0  0  0  0  0  0
   26.3080   15.8790    5.5630 C   0  0  0  0  0  0  0  0  0  0  0  0
   28.9470   10.7170    7.8390 C   0  0  0  0  0  0  0  0  0  0  0  0
   27.8170   10.2740    7.3230 N   0  0  0  0  0  0  0  0  0  0  0  0
   24.8497    9.5640    8.8806 H   0  0  0  0  0  0  0  0  0  0  0  0
   23.8507    9.4948    7.3893 H   0  0  0  0  0  0  0  0  0  0  0  0
   25.5127    8.8135    7.3893 H   0  0  0  0  0  0  0  0  0  0  0  0
   25.3591   11.0390    6.2534 H   0  0  0  0  0  0  0  0  0  0  0  0
   24.8267   11.7474    7.8400 H   0  0  0  0  0  0  0  0  0  0  0  0
   26.8850   12.9820    9.0312 H   0  0  0  0  0  0  0  0  0  0  0  0
   30.9131   13.1125    6.2546 H   0  0  0  0  0  0  0  0  0  0  0  0
   29.9004   13.3108    3.9886 H   0  0  0  0  0  0  0  0  0  0  0  0
   27.8040   14.6164    3.6699 H   0  0  0  0  0  0  0  0  0  0  0  0
   26.2463   18.5631   11.5222 H   0  0  0  0  0  0  0  0  0  0  0  0
   24.4785   17.8513   13.6038 H   0  0  0  0  0  0  0  0  0  0  0  0
   26.1309   16.2553   14.4210 H   0  0  0  0  0  0  0  0  0  0  0  0
   27.3876   17.5383   14.4621 H   0  0  0  0  0  0  0  0  0  0  0  0
   24.7885   17.4603   16.0707 H   0  0  0  0  0  0  0  0  0  0  0  0
   26.4728   17.2359   16.6943 H   0  0  0  0  0  0  0  0  0  0  0  0
   25.5315   21.0215   15.2301 H   0  0  0  0  0  0  0  0  0  0  0  0
   25.0781   17.8133    9.2307 H   0  0  0  0  0  0  0  0  0  0  0  0
   25.0805   17.3838    6.5268 H   0  0  0  0  0  0  0  0  0  0  0  0
   26.8116   17.8435    6.3180 H   0  0  0  0  0  0  0  0  0  0  0  0
   25.4654   15.1794    5.6660 H   0  0  0  0  0  0  0  0  0  0  0  0
   26.3483   16.3260    4.5587 H   0  0  0  0  0  0  0  0  0  0  0  0
   29.9331   10.2578    7.6752 H   0  0  0  0  0  0  0  0  0  0  0  0
  1  2  1  0
  2  3  1  0
  3  4  2  0
  4  5  1  0
  5  6  1  0
  6  7  2  0
  6  8  2  0
  6  9  1  0
  9 10  1  0
 10 11  2  0
 11 12  1  0
 12 13  2  0
 13 14  1  0
 14 15  2  0
 15 16  1  0
 16 17  1  0
 17 18  1  0
 18 19  1  0
 19 20  2  0
 19 21  1  0
 21 22  1  0
 22 23  1  0
 23 24  1  0
 24 25  1  0
 25 26  2  0
 25 27  1  0
 27 28  1  0
 28 29  2  0
 18 30  2  0
 30 31  1  0
 31 32  1  0
 32 33  1  0
  5 34  1  0
 34 35  2  0
 35  3  1  0
 15 10  1  0
 31 16  2  0
 33 14  1  0
 28 22  1  0
  1 36  1  0
  1 37  1  0
  1 38  1  0
  2 39  1  0
  2 40  1  0
  4 41  1  0
 11 42  1  0
 12 43  1  0
 13 44  1  0
 21 45  1  0
 22 46  1  6
 23 47  1  0
 23 48  1  0
 24 49  1  0
 24 50  1  0
 27 51  1  0
 30 52  1  0
 32 53  1  0
 32 54  1  0
 33 55  1  0
 33 56  1  0
 34 57  1  0
M  END
>  <meeko>  (873) 
{"is_sidechain": [true], "free_energy": -11.24, "intermolecular_energy": 0.0, "internal_energy": -11.24, "cluster_size": 14, "cluster_id": 1, "rank_in_cluster": 1}

>  <_RMSD_MCS_to_ref>  (873) 
1.2007064124459772

$$$$
ligand
     RDKit          3D

 64 68  0  0  0  0  0  0  0  0999 V2000
   24.8710    9.6160    7.7820 C   0  0  0  0  0  0  0  0  0  0  0  0
   25.4240   10.9650    7.3490 C   0  0  0  0  0  0  0  0  0  0  0  0
   25.0890   11.2790    5.9320 C   0  0  0  0  0  0  0  0  0  0  0  0
   24.0270   12.0050    5.4310 C   0  0  0  0  0  0  0  0  0  0  0  0
   24.2220   11.9950    4.0800 N   0  0  0  0  0  0  0  0  0  0  0  0
   23.3710   12.9190    2.9630 S   0  0  0  0  0  6  0  0  0  0  0  0
   21.9820   12.8040    3.3630 O   0  0  0  0  0  0  0  0  0  0  0  0
   23.8440   12.5210    1.6520 O   0  0  0  0  0  0  0  0  0  0  0  0
   23.9200   14.5760    3.2710 C   0  0  0  0  0  0  0  0  0  0  0  0
   23.3070   15.6400    2.6110 C   0  0  0  0  0  0  0  0  0  0  0  0
   23.7030   16.9490    2.9010 C   0  0  0  0  0  0  0  0  0  0  0  0
   24.7200   17.2090    3.8260 C   0  0  0  0  0  0  0  0  0  0  0  0
   25.3320   16.1270    4.4790 C   0  0  0  0  0  0  0  0  0  0  0  0
   24.9410   14.8090    4.1950 C   0  0  0  0  0  0  0  0  0  0  0  0
   26.3860   16.3980    5.5330 C   0  0  2  0  0  0  0  0  0  0  0  0
   25.8350   16.3610    6.9660 C   0  0  0  0  0  0  0  0  0  0  0  0
   24.8160   15.7150    7.2040 O   0  0  0  0  0  0  0  0  0  0  0  0
   26.5970   17.0400    7.8990 N   0  0  0  0  0  0  0  0  0  0  0  0
   26.2910   17.2880    9.2510 C   0  0  0  0  0  0  0  0  0  0  0  0
   27.0650   18.2480    9.9110 C   0  0  0  0  0  0  0  0  0  0  0  0
   26.8080   18.5830   11.2450 C   0  0  0  0  0  0  0  0  0  0  0  0
   25.7600   17.9700   11.9430 C   0  0  0  0  0  0  0  0  0  0  0  0
   25.4610   18.3040   13.3950 C   0  0  1  0  0  0  0  0  0  0  0  0
   26.2810   17.4010   14.3210 C   0  0  0  0  0  0  0  0  0  0  0  0
   25.9280   17.6920   15.7710 C   0  0  0  0  0  0  0  0  0  0  0  0
   26.1470   19.1460   16.1010 C   0  0  0  0  0  0  0  0  0  0  0  0
   26.3960   19.5330   17.2390 O   0  0  0  0  0  0  0  0  0  0  0  0
   25.9940   20.0360   15.0680 N   0  0  0  0  0  0  0  0  0  0  0  0
   25.6860   19.7740   13.7520 C   0  0  0  0  0  0  0  0  0  0  0  0
   25.5590   20.7060   12.9610 O   0  0  0  0  0  0  0  0  0  0  0  0
   24.9970   16.9990   11.2800 C   0  0  0  0  0  0  0  0  0  0  0  0
   25.2590   16.6630    9.9470 C   0  0  0  0  0  0  0  0  0  0  0  0
   27.0990   17.7150    5.2330 C   0  0  0  0  0  0  0  0  0  0  0  0
   26.1220   18.8640    5.0480 C   0  0  0  0  0  0  0  0  0  0  0  0
   24.9870   18.5250    4.1940 N   0  0  0  0  0  0  0  0  0  0  0  0
   25.3570   11.3040    3.7980 C   0  0  0  0  0  0  0  0  0  0  0  0
   25.9040   10.8460    4.9040 N   0  0  0  0  0  0  0  0  0  0  0  0
   24.8497    9.5640    8.8806 H   0  0  0  0  0  0  0  0  0  0  0  0
   23.8507    9.4948    7.3893 H   0  0  0  0  0  0  0  0  0  0  0  0
   25.5127    8.8135    7.3893 H   0  0  0  0  0  0  0  0  0  0  0  0
   24.9989   11.7468    7.9956 H   0  0  0  0  0  0  0  0  0  0  0  0
   26.5197   10.9262    7.4375 H   0  0  0  0  0  0  0  0  0  0  0  0
   23.2103   12.4824    5.9923 H   0  0  0  0  0  0  0  0  0  0  0  0
   22.5181   15.4511    1.8681 H   0  0  0  0  0  0  0  0  0  0  0  0
   23.2065   17.7890    2.3932 H   0  0  0  0  0  0  0  0  0  0  0  0
   25.4359   13.9647    4.6973 H   0  0  0  0  0  0  0  0  0  0  0  0
   27.1171   15.5777    5.4820 H   0  0  0  0  0  0  0  0  0  0  0  0
   27.4983   17.4094    7.5642 H   0  0  0  0  0  0  0  0  0  0  0  0
   27.8861   18.7459    9.3746 H   0  0  0  0  0  0  0  0  0  0  0  0
   27.4340   19.3337   11.7494 H   0  0  0  0  0  0  0  0  0  0  0  0
   24.3863   18.1185   13.5385 H   0  0  0  0  0  0  0  0  0  0  0  0
   26.0577   16.3478   14.0953 H   0  0  0  0  0  0  0  0  0  0  0  0
   27.3519   17.5956   14.1623 H   0  0  0  0  0  0  0  0  0  0  0  0
   24.8708   17.4403   15.9409 H   0  0  0  0  0  0  0  0  0  0  0  0
   26.5786   17.0850   16.4177 H   0  0  0  0  0  0  0  0  0  0  0  0
   26.1268   21.0288   15.3082 H   0  0  0  0  0  0  0  0  0  0  0  0
   24.1799   16.4934   11.8155 H   0  0  0  0  0  0  0  0  0  0  0  0
   24.6457   15.9000    9.4454 H   0  0  0  0  0  0  0  0  0  0  0  0
   27.7720   17.9528    6.0700 H   0  0  0  0  0  0  0  0  0  0  0  0
   27.6586   17.5913    4.2941 H   0  0  0  0  0  0  0  0  0  0  0  0
   25.7395   19.1596    6.0361 H   0  0  0  0  0  0  0  0  0  0  0  0
   26.6690   19.6806    4.5541 H   0  0  0  0  0  0  0  0  0  0  0  0
   24.3696   19.2770    3.8560 H   0  0  0  0  0  0  0  0  0  0  0  0
   25.7621   11.1490    2.7871 H   0  0  0  0  0  0  0  0  0  0  0  0
  1  2  1  0
  2  3  1  0
  3  4  2  0
  4  5  1  0
  5  6  1  0
  6  7  2  0
  6  8  2  0
  6  9  1  0
  9 10  2  0
 10 11  1  0
 11 12  2  0
 12 13  1  0
 13 14  2  0
 13 15  1  0
 15 16  1  0
 16 17  2  0
 16 18  1  0
 18 19  1  0
 19 20  2  0
 20 21  1  0
 21 22  2  0
 22 23  1  0
 23 24  1  0
 24 25  1  0
 25 26  1  0
 26 27  2  0
 26 28  1  0
 28 29  1  0
 29 30  2  0
 22 31  1  0
 31 32  2  0
 15 33  1  0
 33 34  1  0
 34 35  1  0
  5 36  1  0
 36 37  2  0
 37  3  1  0
 14  9  1  0
 32 19  1  0
 35 12  1  0
 29 23  1  0
  1 38  1  0
  1 39  1  0
  1 40  1  0
  2 41  1  0
  2 42  1  0
  4 43  1  0
 10 44  1  0
 11 45  1  0
 14 46  1  0
 15 47  1  1
 18 48  1  0
 20 49  1  0
 21 50  1  0
 23 51  1  1
 24 52  1  0
 24 53  1  0
 25 54  1  0
 25 55  1  0
 28 56  1  0
 31 57  1  0
 32 58  1  0
 33 59  1  0
 33 60  1  0
 34 61  1  0
 34 62  1  0
 35 63  1  0
 36 64  1  0
M  END
>  <meeko>  (874) 
{"is_sidechain": [true], "free_energy": -11.24, "intermolecular_energy": 0.0, "internal_energy": -11.24, "cluster_size": 19, "cluster_id": 1, "rank_in_cluster": 1}

>  <_RMSD_MCS_to_ref>  (874) 
1.1202339041468077

$$$$
ligand
     RDKit          3D

 51 54  0  0  0  0  0  0  0  0999 V2000
   24.8710    9.6160    7.7820 C   0  0  0  0  0  0  0  0  0  0  0  0
   25.4240   10.9650    7.3490 C   0  0  0  0  0  0  0  0  0  0  0  0
   26.7670   11.2340    7.9320 C   0  0  0  0  0  0  0  0  0  0  0  0
   27.0960   11.9940    9.0370 C   0  0  0  0  0  0  0  0  0  0  0  0
   28.4530   11.8740    9.1350 N   0  0  0  0  0  0  0  0  0  0  0  0
   29.4450   12.7900   10.1430 S   0  0  0  0  0  6  0  0  0  0  0  0
   30.8000   12.4430    9.7530 O   0  0  0  0  0  0  0  0  0  0  0  0
   28.9450   12.5300   11.4800 O   0  0  0  0  0  0  0  0  0  0  0  0
   29.1640   14.3510    9.7400 O   0  0  0  0  0  0  0  0  0  0  0  0
   28.2250   14.6050    8.7710 C   0  0  0  0  0  0  0  0  0  0  0  0
   28.4680   14.2150    7.4610 C   0  0  0  0  0  0  0  0  0  0  0  0
   27.4830   14.4740    6.5330 C   0  0  0  0  0  0  0  0  0  0  0  0
   26.3080   15.0700    6.8300 N   0  0  0  0  0  0  0  0  0  0  0  0
   26.0760   15.4310    8.1020 C   0  0  0  0  0  0  0  0  0  0  0  0
   24.8730   16.0490    8.4210 C   0  0  0  0  0  0  0  0  0  0  0  0
   24.5650   16.4490    9.7270 C   0  0  0  0  0  0  0  0  0  0  0  0
   25.4770   16.2180   10.7560 C   0  0  0  0  0  0  0  0  0  0  0  0
   25.2230   16.6220   12.1670 C   0  0  0  0  0  0  0  0  0  0  0  0
   24.4450   15.9780   12.8630 O   0  0  0  0  0  0  0  0  0  0  0  0
   25.8690   17.7500   12.6190 N   0  0  0  0  0  0  0  0  0  0  0  0
   25.5730   18.3120   13.9300 C   0  0  1  0  0  0  0  0  0  0  0  0
   26.3150   17.5890   15.0490 C   0  0  0  0  0  0  0  0  0  0  0  0
   25.9940   18.2510   16.3810 C   0  0  0  0  0  0  0  0  0  0  0  0
   26.3170   19.7270   16.3520 C   0  0  0  0  0  0  0  0  0  0  0  0
   26.7190   20.3330   17.3410 O   0  0  0  0  0  0  0  0  0  0  0  0
   26.1090   20.3790   15.1640 N   0  0  0  0  0  0  0  0  0  0  0  0
   25.9860   19.7880   13.9310 C   0  0  0  0  0  0  0  0  0  0  0  0
   26.1860   20.4220   12.8940 O   0  0  0  0  0  0  0  0  0  0  0  0
   26.6990   15.6060   10.4540 C   0  0  0  0  0  0  0  0  0  0  0  0
   27.0090   15.2110    9.1340 C   0  0  0  0  0  0  0  0  0  0  0  0
   28.9110   11.1460    8.0840 C   0  0  0  0  0  0  0  0  0  0  0  0
   27.9060   10.7170    7.3480 N   0  0  0  0  0  0  0  0  0  0  0  0
   24.8497    9.5640    8.8806 H   0  0  0  0  0  0  0  0  0  0  0  0
   23.8507    9.4948    7.3893 H   0  0  0  0  0  0  0  0  0  0  0  0
   25.5127    8.8135    7.3893 H   0  0  0  0  0  0  0  0  0  0  0  0
   25.5043   10.9796    6.2520 H   0  0  0  0  0  0  0  0  0  0  0  0
   24.7364   11.7441    7.7098 H   0  0  0  0  0  0  0  0  0  0  0  0
   26.4195   12.5656    9.6894 H   0  0  0  0  0  0  0  0  0  0  0  0
   29.4079   13.7198    7.1757 H   0  0  0  0  0  0  0  0  0  0  0  0
   27.6642   14.1780    5.4892 H   0  0  0  0  0  0  0  0  0  0  0  0
   24.1391   16.2298    7.6218 H   0  0  0  0  0  0  0  0  0  0  0  0
   23.6062   16.9441    9.9406 H   0  0  0  0  0  0  0  0  0  0  0  0
   26.5734   18.2044   12.0205 H   0  0  0  0  0  0  0  0  0  0  0  0
   24.4950   18.1961   14.1160 H   0  0  0  0  0  0  0  0  0  0  0  0
   25.9992   16.5357   15.0775 H   0  0  0  0  0  0  0  0  0  0  0  0
   27.3982   17.6422   14.8648 H   0  0  0  0  0  0  0  0  0  0  0  0
   24.9229   18.1227   16.5961 H   0  0  0  0  0  0  0  0  0  0  0  0
   26.6070   17.7765   17.1614 H   0  0  0  0  0  0  0  0  0  0  0  0
   26.0386   21.4060   15.1999 H   0  0  0  0  0  0  0  0  0  0  0  0
   27.4294   15.4299   11.2574 H   0  0  0  0  0  0  0  0  0  0  0  0
   29.9720   10.9430    7.8764 H   0  0  0  0  0  0  0  0  0  0  0  0
  1  2  1  0
  2  3  1  0
  3  4  2  0
  4  5  1  0
  5  6  1  0
  6  7  2  0
  6  8  2  0
  6  9  1  0
  9 10  1  0
 10 11  2  0
 11 12  1  0
 12 13  2  0
 13 14  1  0
 14 15  2  0
 15 16  1  0
 16 17  2  0
 17 18  1  0
 18 19  2  0
 18 20  1  0
 20 21  1  0
 21 22  1  0
 22 23  1  0
 23 24  1  0
 24 25  2  0
 24 26  1  0
 26 27  1  0
 27 28  2  0
 17 29  1  0
 29 30  2  0
  5 31  1  0
 31 32  2  0
 32  3  1  0
 30 10  1  0
 30 14  1  0
 27 21  1  0
  1 33  1  0
  1 34  1  0
  1 35  1  0
  2 36  1  0
  2 37  1  0
  4 38  1  0
 11 39  1  0
 12 40  1  0
 15 41  1  0
 16 42  1  0
 20 43  1  0
 21 44  1  1
 22 45  1  0
 22 46  1  0
 23 47  1  0
 23 48  1  0
 26 49  1  0
 29 50  1  0
 31 51  1  0
M  END
>  <meeko>  (875) 
{"is_sidechain": [true], "free_energy": -11.24, "intermolecular_energy": 0.0, "internal_energy": -11.24, "cluster_size": 19, "cluster_id": 1, "rank_in_cluster": 1}

>  <_RMSD_MCS_to_ref>  (875) 
0.9756222515798715

$$$$
ligand
     RDKit          3D

 50 53  0  0  0  0  0  0  0  0999 V2000
   24.8710    9.6160    7.7820 C   0  0  0  0  0  0  0  0  0  0  0  0
   25.4240   10.9650    7.3490 C   0  0  0  0  0  0  0  0  0  0  0  0
   26.4160   11.5140    8.3120 C   0  0  0  0  0  0  0  0  0  0  0  0
   27.0360   12.7490    8.3120 C   0  0  0  0  0  0  0  0  0  0  0  0
   27.8450   12.7160    9.4100 N   0  0  0  0  0  0  0  0  0  0  0  0
   28.9860   13.8750    9.8330 S   0  0  0  0  0  6  0  0  0  0  0  0
   29.6500   13.3720   11.0200 O   0  0  0  0  0  0  0  0  0  0  0  0
   29.7110   14.1780    8.6140 O   0  0  0  0  0  0  0  0  0  0  0  0
   28.0180   15.2860   10.2880 C   0  0  0  0  0  0  0  0  0  0  0  0
   28.5260   16.5730   10.1110 C   0  0  0  0  0  0  0  0  0  0  0  0
   27.7420   17.6700   10.4630 C   0  0  0  0  0  0  0  0  0  0  0  0
   26.4600   17.4790   10.9890 C   0  0  0  0  0  0  0  0  0  0  0  0
   25.9500   16.1860   11.1820 C   0  0  0  0  0  0  0  0  0  0  0  0
   24.6060   15.9680   11.7080 C   0  0  0  0  0  0  0  0  0  0  0  0
   23.3520   15.3570   10.7010 S   0  0  0  0  0  0  0  0  0  0  0  0
   22.1930   15.4650   11.8980 N   0  0  0  0  0  0  0  0  0  0  0  0
   22.6710   15.9370   13.0340 N   0  0  0  0  0  0  0  0  0  0  0  0
   24.0400   16.2150   12.9550 C   0  0  0  0  0  0  0  0  0  0  0  0
   24.7450   16.7330   14.1270 C   0  0  0  0  0  0  0  0  0  0  0  0
   25.0760   16.0400   15.0840 O   0  0  0  0  0  0  0  0  0  0  0  0
   25.0360   18.0820   14.0520 N   0  0  0  0  0  0  0  0  0  0  0  0
   26.0030   18.6610   14.9700 C   0  0  2  0  0  0  0  0  0  0  0  0
   25.6750   18.2970   16.4120 C   0  0  0  0  0  0  0  0  0  0  0  0
   26.7120   18.9120   17.3380 C   0  0  0  0  0  0  0  0  0  0  0  0
   26.8060   20.4090   17.1450 C   0  0  0  0  0  0  0  0  0  0  0  0
   27.0930   21.1720   18.0610 O   0  0  0  0  0  0  0  0  0  0  0  0
   26.5870   20.8810   15.8750 N   0  0  0  0  0  0  0  0  0  0  0  0
   26.0190   20.1930   14.8290 C   0  0  0  0  0  0  0  0  0  0  0  0
   25.5860   20.7940   13.8470 O   0  0  0  0  0  0  0  0  0  0  0  0
   26.7480   15.0860   10.8410 C   0  0  0  0  0  0  0  0  0  0  0  0
   27.7420   11.5000   10.0030 C   0  0  0  0  0  0  0  0  0  0  0  0
   26.8630   10.7500    9.3710 N   0  0  0  0  0  0  0  0  0  0  0  0
   24.8497    9.5640    8.8806 H   0  0  0  0  0  0  0  0  0  0  0  0
   23.8507    9.4948    7.3893 H   0  0  0  0  0  0  0  0  0  0  0  0
   25.5127    8.8135    7.3893 H   0  0  0  0  0  0  0  0  0  0  0  0
   25.9115   10.8478    6.3699 H   0  0  0  0  0  0  0  0  0  0  0  0
   24.5811   11.6702    7.3016 H   0  0  0  0  0  0  0  0  0  0  0  0
   26.9068   13.5704    7.5918 H   0  0  0  0  0  0  0  0  0  0  0  0
   29.5348   16.7204    9.6979 H   0  0  0  0  0  0  0  0  0  0  0  0
   28.1325   18.6893   10.3268 H   0  0  0  0  0  0  0  0  0  0  0  0
   25.8451   18.3517   11.2542 H   0  0  0  0  0  0  0  0  0  0  0  0
   24.5702   18.6739   13.3494 H   0  0  0  0  0  0  0  0  0  0  0  0
   26.9925   18.2534   14.7157 H   0  0  0  0  0  0  0  0  0  0  0  0
   24.6779   18.6833   16.6700 H   0  0  0  0  0  0  0  0  0  0  0  0
   25.6848   17.2029   16.5254 H   0  0  0  0  0  0  0  0  0  0  0  0
   26.4299   18.7026   18.3804 H   0  0  0  0  0  0  0  0  0  0  0  0
   27.6916   18.4705   17.1023 H   0  0  0  0  0  0  0  0  0  0  0  0
   26.8782   21.8507   15.6861 H   0  0  0  0  0  0  0  0  0  0  0  0
   26.3760   14.0644   11.0081 H   0  0  0  0  0  0  0  0  0  0  0  0
   28.3132   11.1844   10.8885 H   0  0  0  0  0  0  0  0  0  0  0  0
  1  2  1  0
  2  3  1  0
  3  4  2  0
  4  5  1  0
  5  6  1  0
  6  7  2  0
  6  8  2  0
  6  9  1  0
  9 10  2  0
 10 11  1  0
 11 12  2  0
 12 13  1  0
 13 14  1  0
 14 15  1  0
 15 16  1  0
 16 17  2  0
 17 18  1  0
 18 19  1  0
 19 20  2  0
 19 21  1  0
 21 22  1  0
 22 23  1  0
 23 24  1  0
 24 25  1  0
 25 26  2  0
 25 27  1  0
 27 28  1  0
 28 29  2  0
 13 30  2  0
  5 31  1  0
 31 32  2  0
 32  3  1  0
 30  9  1  0
 18 14  2  0
 28 22  1  0
  1 33  1  0
  1 34  1  0
  1 35  1  0
  2 36  1  0
  2 37  1  0
  4 38  1  0
 10 39  1  0
 11 40  1  0
 12 41  1  0
 21 42  1  0
 22 43  1  6
 23 44  1  0
 23 45  1  0
 24 46  1  0
 24 47  1  0
 27 48  1  0
 30 49  1  0
 31 50  1  0
M  END
>  <meeko>  (876) 
{"is_sidechain": [true], "free_energy": -11.24, "intermolecular_energy": 0.0, "internal_energy": -11.24, "cluster_size": 3, "cluster_id": 1, "rank_in_cluster": 1}

>  <_RMSD_MCS_to_ref>  (876) 
1.1832763366555121

$$$$
ligand
     RDKit          3D

 64 68  0  0  0  0  0  0  0  0999 V2000
   24.8540    9.4020    7.6050 C   0  0  0  0  0  0  0  0  0  0  0  0
   25.5230   10.7550    7.4270 C   0  0  0  0  0  0  0  0  0  0  0  0
   25.0780   11.4430    6.1840 C   0  0  0  0  0  0  0  0  0  0  0  0
   25.4630   12.6730    5.6870 C   0  0  0  0  0  0  0  0  0  0  0  0
   24.7240   12.8210    4.5480 N   0  0  0  0  0  0  0  0  0  0  0  0
   24.8950   14.0600    3.4250 S   0  0  0  0  0  6  0  0  0  0  0  0
   25.7440   13.5380    2.3670 O   0  0  0  0  0  0  0  0  0  0  0  0
   23.5490   14.5270    3.1560 O   0  0  0  0  0  0  0  0  0  0  0  0
   25.7760   15.3130    4.3230 C   0  0  0  0  0  0  0  0  0  0  0  0
   25.3210   15.6250    5.6140 C   0  0  0  0  0  0  0  0  0  0  0  0
   26.0120   16.5570    6.3890 C   0  0  0  0  0  0  0  0  0  0  0  0
   25.5080   16.8600    7.7570 C   0  0  0  0  0  0  0  0  0  0  0  0
   24.2980   16.8480    7.9380 O   0  0  0  0  0  0  0  0  0  0  0  0
   26.4910   17.0840    8.7030 N   0  0  0  0  0  0  0  0  0  0  0  0
   26.3070   17.4450   10.0550 C   0  0  0  0  0  0  0  0  0  0  0  0
   25.2990   16.7810   10.7640 C   0  0  0  0  0  0  0  0  0  0  0  0
   25.0570   17.0740   12.1100 C   0  0  0  0  0  0  0  0  0  0  0  0
   25.8290   18.0290   12.7830 C   0  0  0  0  0  0  0  0  0  0  0  0
   25.5750   18.3900   14.2370 C   0  0  1  0  0  0  0  0  0  0  0  0
   26.5960   17.6850   15.1360 C   0  0  0  0  0  0  0  0  0  0  0  0
   26.2980   17.9920   16.5950 C   0  0  0  0  0  0  0  0  0  0  0  0
   26.2920   19.4780   16.8460 C   0  0  0  0  0  0  0  0  0  0  0  0
   26.5470   19.9600   17.9460 O   0  0  0  0  0  0  0  0  0  0  0  0
   25.9270   20.2740   15.7900 N   0  0  0  0  0  0  0  0  0  0  0  0
   25.5770   19.8940   14.5150 C   0  0  0  0  0  0  0  0  0  0  0  0
   25.2400   20.7480   13.6980 O   0  0  0  0  0  0  0  0  0  0  0  0
   26.8360   18.6930   12.0670 C   0  0  0  0  0  0  0  0  0  0  0  0
   27.0730   18.4010   10.7180 C   0  0  0  0  0  0  0  0  0  0  0  0
   27.1400   17.1900    5.8620 C   0  0  0  0  0  0  0  0  0  0  0  0
   27.5960   16.8800    4.5680 C   0  0  0  0  0  0  0  0  0  0  0  0
   26.8890   15.9630    3.7560 C   0  0  0  0  0  0  0  0  0  0  0  0
   27.3820   15.6160    2.4880 N   0  0  0  0  0  0  0  0  0  0  0  0
   28.3400   16.5260    1.8670 C   0  0  0  0  0  0  0  0  0  0  0  0
   29.4350   16.8800    2.8560 C   0  0  0  0  0  0  0  0  0  0  0  0
   28.8170   17.6000    4.0460 C   0  0  0  0  0  0  0  0  0  0  0  0
   23.9850   11.6990    4.3500 C   0  0  0  0  0  0  0  0  0  0  0  0
   24.1650   10.8460    5.3390 N   0  0  0  0  0  0  0  0  0  0  0  0
   24.7464    9.1845    8.6779 H   0  0  0  0  0  0  0  0  0  0  0  0
   23.8606    9.4192    7.1330 H   0  0  0  0  0  0  0  0  0  0  0  0
   25.4708    8.6230    7.1330 H   0  0  0  0  0  0  0  0  0  0  0  0
   25.2753   11.3891    8.2910 H   0  0  0  0  0  0  0  0  0  0  0  0
   26.6076   10.5881    7.3509 H   0  0  0  0  0  0  0  0  0  0  0  0
   26.1972   13.3734    6.1117 H   0  0  0  0  0  0  0  0  0  0  0  0
   24.4209   15.1353    6.0140 H   0  0  0  0  0  0  0  0  0  0  0  0
   27.4650   16.9755    8.3862 H   0  0  0  0  0  0  0  0  0  0  0  0
   24.6895   16.0191   10.2560 H   0  0  0  0  0  0  0  0  0  0  0  0
   24.2522   16.5490   12.6453 H   0  0  0  0  0  0  0  0  0  0  0  0
   24.5572   18.0417   14.4667 H   0  0  0  0  0  0  0  0  0  0  0  0
   26.5378   16.5988   14.9723 H   0  0  0  0  0  0  0  0  0  0  0  0
   27.6059   18.0441   14.8888 H   0  0  0  0  0  0  0  0  0  0  0  0
   25.3118   17.5797   16.8548 H   0  0  0  0  0  0  0  0  0  0  0  0
   27.0833   17.5358   17.2157 H   0  0  0  0  0  0  0  0  0  0  0  0
   25.9132   21.2870   15.9758 H   0  0  0  0  0  0  0  0  0  0  0  0
   27.4485   19.4542   12.5725 H   0  0  0  0  0  0  0  0  0  0  0  0
   27.8709   18.9311   10.1773 H   0  0  0  0  0  0  0  0  0  0  0  0
   27.6766   17.9378    6.4644 H   0  0  0  0  0  0  0  0  0  0  0  0
   27.0795   14.7529    2.0143 H   0  0  0  0  0  0  0  0  0  0  0  0
   28.7868   16.0398    0.9873 H   0  0  0  0  0  0  0  0  0  0  0  0
   27.8190   17.4451    1.5606 H   0  0  0  0  0  0  0  0  0  0  0  0
   29.9326   15.9610    3.1993 H   0  0  0  0  0  0  0  0  0  0  0  0
   30.1755   17.5332    2.3712 H   0  0  0  0  0  0  0  0  0  0  0  0
   29.5641   17.6626    4.8509 H   0  0  0  0  0  0  0  0  0  0  0  0
   28.5063   18.6018    3.7145 H   0  0  0  0  0  0  0  0  0  0  0  0
   23.3278   11.5260    3.4850 H   0  0  0  0  0  0  0  0  0  0  0  0
  1  2  1  0
  2  3  1  0
  3  4  2  0
  4  5  1  0
  5  6  1  0
  6  7  2  0
  6  8  2  0
  6  9  1  0
  9 10  2  0
 10 11  1  0
 11 12  1  0
 12 13  2  0
 12 14  1  0
 14 15  1  0
 15 16  2  0
 16 17  1  0
 17 18  2  0
 18 19  1  0
 19 20  1  0
 20 21  1  0
 21 22  1  0
 22 23  2  0
 22 24  1  0
 24 25  1  0
 25 26  2  0
 18 27  1  0
 27 28  2  0
 11 29  2  0
 29 30  1  0
 30 31  2  0
 31 32  1  0
 32 33  1  0
 33 34  1  0
 34 35  1  0
  5 36  1  0
 36 37  2  0
 37  3  1  0
 31  9  1  0
 28 15  1  0
 35 30  1  0
 25 19  1  0
  1 38  1  0
  1 39  1  0
  1 40  1  0
  2 41  1  0
  2 42  1  0
  4 43  1  0
 10 44  1  0
 14 45  1  0
 16 46  1  0
 17 47  1  0
 19 48  1  1
 20 49  1  0
 20 50  1  0
 21 51  1  0
 21 52  1  0
 24 53  1  0
 27 54  1  0
 28 55  1  0
 29 56  1  0
 32 57  1  0
 33 58  1  0
 33 59  1  0
 34 60  1  0
 34 61  1  0
 35 62  1  0
 35 63  1  0
 36 64  1  0
M  END
>  <meeko>  (877) 
{"is_sidechain": [true], "free_energy": -11.23, "intermolecular_energy": 0.0, "internal_energy": -11.23, "cluster_size": 19, "cluster_id": 1, "rank_in_cluster": 1}

>  <_RMSD_MCS_to_ref>  (877) 
0.828362541403218

$$$$
ligand
     RDKit          3D

 61 66  0  0  0  0  0  0  0  0999 V2000
   24.8540    9.4020    7.6050 C   0  0  0  0  0  0  0  0  0  0  0  0
   25.5230   10.7550    7.4270 C   0  0  0  0  0  0  0  0  0  0  0  0
   24.9940   11.4940    6.2480 C   0  0  0  0  0  0  0  0  0  0  0  0
   25.6570   12.3530    5.3930 C   0  0  0  0  0  0  0  0  0  0  0  0
   24.7000   12.7310    4.4940 N   0  0  0  0  0  0  0  0  0  0  0  0
   24.9320   13.7760    3.1980 S   0  0  0  0  0  6  0  0  0  0  0  0
   26.2910   13.4970    2.7650 O   0  0  0  0  0  0  0  0  0  0  0  0
   23.8060   13.6020    2.3010 O   0  0  0  0  0  0  0  0  0  0  0  0
   24.9030   15.4230    3.8290 C   0  0  0  0  0  0  0  0  0  0  0  0
   24.9560   16.4800    2.9050 C   0  0  0  0  0  0  0  0  0  0  0  0
   24.9410   17.7920    3.3580 C   0  0  0  0  0  0  0  0  0  0  0  0
   24.8730   18.0410    4.7250 C   0  0  0  0  0  0  0  0  0  0  0  0
   24.8150   16.9790    5.6450 C   0  0  0  0  0  0  0  0  0  0  0  0
   24.7420   17.2310    7.0250 C   0  0  0  0  0  0  0  0  0  0  0  0
   24.6780   16.1810    7.9460 C   0  0  0  0  0  0  0  0  0  0  0  0
   24.6010   16.4180    9.3930 C   0  0  0  0  0  0  0  0  0  0  0  0
   23.3930   16.1760   10.0980 C   0  0  0  0  0  0  0  0  0  0  0  0
   23.2920   16.4000   11.4750 C   0  0  0  0  0  0  0  0  0  0  0  0
   24.4170   16.8600   12.1270 C   0  0  0  0  0  0  0  0  0  0  0  0
   25.6180   17.1070   11.4680 C   0  0  0  0  0  0  0  0  0  0  0  0
   25.7230   16.8940   10.1030 C   0  0  0  0  0  0  0  0  0  0  0  0
   26.6330   17.6120   12.4360 C   0  0  0  0  0  0  0  0  0  0  0  0
   25.9340   17.5270   13.7110 N   0  0  0  0  0  0  0  0  0  0  0  0
   26.4820   18.1360   14.9180 C   0  0  2  0  0  0  0  0  0  0  0  0
   25.4950   18.1920   16.0850 C   0  0  0  0  0  0  0  0  0  0  0  0
   26.1870   18.7860   17.3020 C   0  0  0  0  0  0  0  0  0  0  0  0
   26.7550   20.1520   16.9980 C   0  0  0  0  0  0  0  0  0  0  0  0
   26.9820   20.9770   17.8770 O   0  0  0  0  0  0  0  0  0  0  0  0
   27.0920   20.4040   15.6910 N   0  0  0  0  0  0  0  0  0  0  0  0
   27.0510   19.5330   14.6250 C   0  0  0  0  0  0  0  0  0  0  0  0
   27.5480   19.8510   13.5450 O   0  0  0  0  0  0  0  0  0  0  0  0
   24.6000   17.1830   13.5460 C   0  0  0  0  0  0  0  0  0  0  0  0
   23.7150   17.1600   14.3790 O   0  0  0  0  0  0  0  0  0  0  0  0
   24.6910   14.9030    7.4070 C   0  0  0  0  0  0  0  0  0  0  0  0
   24.7590   14.6230    6.0810 N   0  0  0  0  0  0  0  0  0  0  0  0
   24.8240   15.6390    5.2010 C   0  0  0  0  0  0  0  0  0  0  0  0
   23.5280   12.1210    4.8050 C   0  0  0  0  0  0  0  0  0  0  0  0
   23.6710   11.3600    5.8720 N   0  0  0  0  0  0  0  0  0  0  0  0
   24.7464    9.1845    8.6779 H   0  0  0  0  0  0  0  0  0  0  0  0
   23.8606    9.4192    7.1330 H   0  0  0  0  0  0  0  0  0  0  0  0
   25.4708    8.6230    7.1330 H   0  0  0  0  0  0  0  0  0  0  0  0
   25.3484   11.3579    8.3303 H   0  0  0  0  0  0  0  0  0  0  0  0
   26.5967   10.5814    7.2624 H   0  0  0  0  0  0  0  0  0  0  0  0
   26.7123   12.6616    5.4279 H   0  0  0  0  0  0  0  0  0  0  0  0
   25.0092   16.2687    1.8268 H   0  0  0  0  0  0  0  0  0  0  0  0
   24.9825   18.6268    2.6429 H   0  0  0  0  0  0  0  0  0  0  0  0
   24.8645   19.0787    5.0898 H   0  0  0  0  0  0  0  0  0  0  0  0
   24.7351   18.2699    7.3864 H   0  0  0  0  0  0  0  0  0  0  0  0
   22.5158   15.8036    9.5486 H   0  0  0  0  0  0  0  0  0  0  0  0
   22.3523   16.2165   12.0166 H   0  0  0  0  0  0  0  0  0  0  0  0
   26.6696   17.0936    9.5795 H   0  0  0  0  0  0  0  0  0  0  0  0
   27.5320   16.9781   12.4341 H   0  0  0  0  0  0  0  0  0  0  0  0
   26.9907   18.6256   12.2024 H   0  0  0  0  0  0  0  0  0  0  0  0
   27.2990   17.4727   15.2382 H   0  0  0  0  0  0  0  0  0  0  0  0
   24.6349   18.8197   15.8088 H   0  0  0  0  0  0  0  0  0  0  0  0
   25.1450   17.1760   16.3200 H   0  0  0  0  0  0  0  0  0  0  0  0
   25.4579   18.8752   18.1208 H   0  0  0  0  0  0  0  0  0  0  0  0
   27.0153   18.1216   17.5892 H   0  0  0  0  0  0  0  0  0  0  0  0
   27.4144   21.3598   15.4827 H   0  0  0  0  0  0  0  0  0  0  0  0
   24.6427   14.0546    8.1054 H   0  0  0  0  0  0  0  0  0  0  0  0
   22.5895   12.2444    4.2447 H   0  0  0  0  0  0  0  0  0  0  0  0
  1  2  1  0
  2  3  1  0
  3  4  2  0
  4  5  1  0
  5  6  1  0
  6  7  2  0
  6  8  2  0
  6  9  1  0
  9 10  2  0
 10 11  1  0
 11 12  2  0
 12 13  1  0
 13 14  2  0
 14 15  1  0
 15 16  1  0
 16 17  2  0
 17 18  1  0
 18 19  2  0
 19 20  1  0
 20 21  2  0
 20 22  1  0
 22 23  1  0
 23 24  1  0
 24 25  1  0
 25 26  1  0
 26 27  1  0
 27 28  2  0
 27 29  1  0
 29 30  1  0
 30 31  2  0
 23 32  1  0
 32 33  2  0
 15 34  2  0
 34 35  1  0
 35 36  2  0
  5 37  1  0
 37 38  2  0
 38  3  1  0
 36  9  1  0
 36 13  1  0
 21 16  1  0
 30 24  1  0
 32 19  1  0
  1 39  1  0
  1 40  1  0
  1 41  1  0
  2 42  1  0
  2 43  1  0
  4 44  1  0
 10 45  1  0
 11 46  1  0
 12 47  1  0
 14 48  1  0
 17 49  1  0
 18 50  1  0
 21 51  1  0
 22 52  1  0
 22 53  1  0
 24 54  1  1
 25 55  1  0
 25 56  1  0
 26 57  1  0
 26 58  1  0
 29 59  1  0
 34 60  1  0
 37 61  1  0
M  END
>  <meeko>  (878) 
{"is_sidechain": [true], "free_energy": -11.23, "intermolecular_energy": 0.0, "internal_energy": -11.23, "cluster_size": 20, "cluster_id": 1, "rank_in_cluster": 1}

>  <_RMSD_MCS_to_ref>  (878) 
1.5134051010882694

$$$$
ligand
     RDKit          3D

 61 66  0  0  0  0  0  0  0  0999 V2000
   24.8540    9.4020    7.6050 C   0  0  0  0  0  0  0  0  0  0  0  0
   25.5230   10.7550    7.4270 C   0  0  0  0  0  0  0  0  0  0  0  0
   24.9980   11.4920    6.2460 C   0  0  0  0  0  0  0  0  0  0  0  0
   25.1590   12.8220    5.9080 C   0  0  0  0  0  0  0  0  0  0  0  0
   24.4740   12.9530    4.7360 N   0  0  0  0  0  0  0  0  0  0  0  0
   24.3560   14.3560    3.8190 S   0  0  0  0  0  6  0  0  0  0  0  0
   25.2510   14.1990    2.6910 O   0  0  0  0  0  0  0  0  0  0  0  0
   22.9280   14.5470    3.6450 O   0  0  0  0  0  0  0  0  0  0  0  0
   24.9770   15.6400    4.8730 C   0  0  0  0  0  0  0  0  0  0  0  0
   24.5960   15.5840    6.2190 C   0  0  0  0  0  0  0  0  0  0  0  0
   25.1050   16.5220    7.0980 C   0  0  0  0  0  0  0  0  0  0  0  0
   24.7790   16.5500    8.5410 C   0  0  0  0  0  0  0  0  0  0  0  0
   23.6230   15.9080    9.0620 C   0  0  0  0  0  0  0  0  0  0  0  0
   23.3110   15.9340   10.4260 C   0  0  0  0  0  0  0  0  0  0  0  0
   24.1760   16.6080   11.2620 C   0  0  0  0  0  0  0  0  0  0  0  0
   25.3210   17.2450   10.7970 C   0  0  0  0  0  0  0  0  0  0  0  0
   25.6320   17.2230    9.4460 C   0  0  0  0  0  0  0  0  0  0  0  0
   26.0420   17.8960   11.9290 C   0  0  0  0  0  0  0  0  0  0  0  0
   25.2520   17.4850   13.0850 N   0  0  0  0  0  0  0  0  0  0  0  0
   25.4070   18.0680   14.4120 C   0  0  1  0  0  0  0  0  0  0  0  0
   26.6340   17.5350   15.1440 C   0  0  0  0  0  0  0  0  0  0  0  0
   26.6770   18.1180   16.5490 C   0  0  0  0  0  0  0  0  0  0  0  0
   26.6500   19.6280   16.5140 C   0  0  0  0  0  0  0  0  0  0  0  0
   27.2730   20.3140   17.3190 O   0  0  0  0  0  0  0  0  0  0  0  0
   25.8750   20.2060   15.5410 N   0  0  0  0  0  0  0  0  0  0  0  0
   25.4780   19.6050   14.3680 C   0  0  0  0  0  0  0  0  0  0  0  0
   25.2150   20.2860   13.3800 O   0  0  0  0  0  0  0  0  0  0  0  0
   24.1060   16.7980   12.7150 C   0  0  0  0  0  0  0  0  0  0  0  0
   23.2000   16.4110   13.4270 O   0  0  0  0  0  0  0  0  0  0  0  0
   25.9490   17.4890    6.6700 N   0  0  0  0  0  0  0  0  0  0  0  0
   26.2980   17.5630    5.3770 C   0  0  0  0  0  0  0  0  0  0  0  0
   27.1610   18.5860    5.0080 C   0  0  0  0  0  0  0  0  0  0  0  0
   27.5790   18.7650    3.6900 C   0  0  0  0  0  0  0  0  0  0  0  0
   27.1170   17.9060    2.7080 C   0  0  0  0  0  0  0  0  0  0  0  0
   26.2500   16.8690    3.0520 C   0  0  0  0  0  0  0  0  0  0  0  0
   25.8330   16.6630    4.3980 C   0  0  0  0  0  0  0  0  0  0  0  0
   23.9040   11.7650    4.4140 C   0  0  0  0  0  0  0  0  0  0  0  0
   24.2230   10.8460    5.3020 N   0  0  0  0  0  0  0  0  0  0  0  0
   24.7464    9.1845    8.6779 H   0  0  0  0  0  0  0  0  0  0  0  0
   23.8606    9.4192    7.1330 H   0  0  0  0  0  0  0  0  0  0  0  0
   25.4708    8.6230    7.1330 H   0  0  0  0  0  0  0  0  0  0  0  0
   25.3454   11.3591    8.3289 H   0  0  0  0  0  0  0  0  0  0  0  0
   26.5972   10.5813    7.2658 H   0  0  0  0  0  0  0  0  0  0  0  0
   25.7126   13.5973    6.4580 H   0  0  0  0  0  0  0  0  0  0  0  0
   23.9027   14.8061    6.5716 H   0  0  0  0  0  0  0  0  0  0  0  0
   22.9530   15.3743    8.3719 H   0  0  0  0  0  0  0  0  0  0  0  0
   22.4109   15.4362   10.8160 H   0  0  0  0  0  0  0  0  0  0  0  0
   26.5385   17.7270    9.0797 H   0  0  0  0  0  0  0  0  0  0  0  0
   27.0766   17.5301   12.0042 H   0  0  0  0  0  0  0  0  0  0  0  0
   26.1294   18.9874   11.8234 H   0  0  0  0  0  0  0  0  0  0  0  0
   24.5064   17.7667   14.9672 H   0  0  0  0  0  0  0  0  0  0  0  0
   26.5782   16.4380   15.2034 H   0  0  0  0  0  0  0  0  0  0  0  0
   27.5432   17.8259   14.5974 H   0  0  0  0  0  0  0  0  0  0  0  0
   25.8055   17.7564   17.1145 H   0  0  0  0  0  0  0  0  0  0  0  0
   27.6121   17.7971   17.0312 H   0  0  0  0  0  0  0  0  0  0  0  0
   25.5629   21.1742   15.7022 H   0  0  0  0  0  0  0  0  0  0  0  0
   27.5270   19.2780    5.7808 H   0  0  0  0  0  0  0  0  0  0  0  0
   28.2697   19.5816    3.4329 H   0  0  0  0  0  0  0  0  0  0  0  0
   27.4317   18.0403    1.6626 H   0  0  0  0  0  0  0  0  0  0  0  0
   25.8798   16.1948    2.2656 H   0  0  0  0  0  0  0  0  0  0  0  0
   23.2653   11.5933    3.5350 H   0  0  0  0  0  0  0  0  0  0  0  0
  1  2  1  0
  2  3  1  0
  3  4  2  0
  4  5  1  0
  5  6  1  0
  6  7  2  0
  6  8  2  0
  6  9  1  0
  9 10  2  0
 10 11  1  0
 11 12  1  0
 12 13  2  0
 13 14  1  0
 14 15  2  0
 15 16  1  0
 16 17  2  0
 16 18  1  0
 18 19  1  0
 19 20  1  0
 20 21  1  0
 21 22  1  0
 22 23  1  0
 23 24  2  0
 23 25  1  0
 25 26  1  0
 26 27  2  0
 19 28  1  0
 28 29  2  0
 11 30  2  0
 30 31  1  0
 31 32  2  0
 32 33  1  0
 33 34  2  0
 34 35  1  0
 35 36  2  0
  5 37  1  0
 37 38  2  0
 38  3  1  0
 36  9  1  0
 17 12  1  0
 26 20  1  0
 36 31  1  0
 28 15  1  0
  1 39  1  0
  1 40  1  0
  1 41  1  0
  2 42  1  0
  2 43  1  0
  4 44  1  0
 10 45  1  0
 13 46  1  0
 14 47  1  0
 17 48  1  0
 18 49  1  0
 18 50  1  0
 20 51  1  1
 21 52  1  0
 21 53  1  0
 22 54  1  0
 22 55  1  0
 25 56  1  0
 32 57  1  0
 33 58  1  0
 34 59  1  0
 35 60  1  0
 37 61  1  0
M  END
>  <meeko>  (879) 
{"is_sidechain": [true], "free_energy": -11.23, "intermolecular_energy": 0.0, "internal_energy": -11.23, "cluster_size": 20, "cluster_id": 1, "rank_in_cluster": 1}

>  <_RMSD_MCS_to_ref>  (879) 
0.5928585178794528

$$$$
ligand
     RDKit          3D

 57 61  0  0  0  0  0  0  0  0999 V2000
   24.8710    9.6160    7.7820 C   0  0  0  0  0  0  0  0  0  0  0  0
   25.4240   10.9650    7.3490 C   0  0  0  0  0  0  0  0  0  0  0  0
   25.0820   11.2850    5.9370 C   0  0  0  0  0  0  0  0  0  0  0  0
   25.5360   12.3240    5.1470 C   0  0  0  0  0  0  0  0  0  0  0  0
   24.9180   12.1250    3.9460 N   0  0  0  0  0  0  0  0  0  0  0  0
   24.9160   13.1970    2.6510 S   0  0  0  0  0  6  0  0  0  0  0  0
   26.0560   12.8310    1.8330 O   0  0  0  0  0  0  0  0  0  0  0  0
   23.5590   13.1950    2.1390 O   0  0  0  0  0  0  0  0  0  0  0  0
   25.2370   14.7630    3.4110 C   0  0  0  0  0  0  0  0  0  0  0  0
   25.7080   15.8260    2.6320 C   0  0  0  0  0  0  0  0  0  0  0  0
   25.9570   17.0580    3.2340 C   0  0  0  0  0  0  0  0  0  0  0  0
   25.7290   17.2270    4.6020 C   0  0  0  0  0  0  0  0  0  0  0  0
   25.2450   16.1660    5.3730 C   0  0  0  0  0  0  0  0  0  0  0  0
   25.0050   16.3490    6.7710 C   0  0  0  0  0  0  0  0  0  0  0  0
   24.8050   16.5010    7.9450 C   0  0  0  0  0  0  0  0  0  0  0  0
   24.5670   16.6820    9.3440 C   0  0  0  0  0  0  0  0  0  0  0  0
   23.4050   16.1310    9.9310 C   0  0  0  0  0  0  0  0  0  0  0  0
   23.1420   16.2940   11.2960 C   0  0  0  0  0  0  0  0  0  0  0  0
   24.0650   17.0100   12.0330 C   0  0  0  0  0  0  0  0  0  0  0  0
   25.2010   17.5490   11.4600 C   0  0  0  0  0  0  0  0  0  0  0  0
   25.4840   17.4060   10.1140 C   0  0  0  0  0  0  0  0  0  0  0  0
   25.9380   18.2450   12.5110 C   0  0  0  0  0  0  0  0  0  0  0  0
   26.9600   18.8760   12.3230 O   0  0  0  0  0  0  0  0  0  0  0  0
   25.2400   18.0550   13.6730 N   0  0  0  0  0  0  0  0  0  0  0  0
   25.5380   18.7010   14.9420 C   0  0  1  0  0  0  0  0  0  0  0  0
   26.6480   18.0280   15.7430 C   0  0  0  0  0  0  0  0  0  0  0  0
   26.8380   18.7710   17.0570 C   0  0  0  0  0  0  0  0  0  0  0  0
   27.1330   20.2350   16.8220 C   0  0  0  0  0  0  0  0  0  0  0  0
   27.7910   20.9070   17.6110 O   0  0  0  0  0  0  0  0  0  0  0  0
   26.5770   20.8020   15.7020 N   0  0  0  0  0  0  0  0  0  0  0  0
   25.8880   20.1720   14.6890 C   0  0  0  0  0  0  0  0  0  0  0  0
   25.5420   20.7970   13.6890 O   0  0  0  0  0  0  0  0  0  0  0  0
   24.0810   17.3610   13.4520 C   0  0  0  0  0  0  0  0  0  0  0  0
   23.2060   17.0610   14.2430 O   0  0  0  0  0  0  0  0  0  0  0  0
   24.9920   14.9290    4.7790 C   0  0  0  0  0  0  0  0  0  0  0  0
   24.0990   11.0460    4.0380 C   0  0  0  0  0  0  0  0  0  0  0  0
   24.1840   10.5040    5.2360 N   0  0  0  0  0  0  0  0  0  0  0  0
   24.8497    9.5640    8.8806 H   0  0  0  0  0  0  0  0  0  0  0  0
   23.8507    9.4948    7.3893 H   0  0  0  0  0  0  0  0  0  0  0  0
   25.5127    8.8135    7.3893 H   0  0  0  0  0  0  0  0  0  0  0  0
   25.0047   11.7456    8.0008 H   0  0  0  0  0  0  0  0  0  0  0  0
   26.5202   10.9225    7.4299 H   0  0  0  0  0  0  0  0  0  0  0  0
   26.2351   13.1273    5.4227 H   0  0  0  0  0  0  0  0  0  0  0  0
   25.8801   15.6903    1.5541 H   0  0  0  0  0  0  0  0  0  0  0  0
   26.3333   17.8980    2.6317 H   0  0  0  0  0  0  0  0  0  0  0  0
   25.9313   18.1995    5.0746 H   0  0  0  0  0  0  0  0  0  0  0  0
   22.6975   15.5662    9.3061 H   0  0  0  0  0  0  0  0  0  0  0  0
   22.2398   15.8705   11.7614 H   0  0  0  0  0  0  0  0  0  0  0  0
   26.3901   17.8422    9.6682 H   0  0  0  0  0  0  0  0  0  0  0  0
   24.6322   18.6115   15.5596 H   0  0  0  0  0  0  0  0  0  0  0  0
   26.3721   16.9830   15.9478 H   0  0  0  0  0  0  0  0  0  0  0  0
   27.5849   18.0504   15.1671 H   0  0  0  0  0  0  0  0  0  0  0  0
   25.9191   18.6821   17.6551 H   0  0  0  0  0  0  0  0  0  0  0  0
   27.6922   18.3253   17.5877 H   0  0  0  0  0  0  0  0  0  0  0  0
   26.6885   21.8216   15.6078 H   0  0  0  0  0  0  0  0  0  0  0  0
   24.6041   14.0930    5.3796 H   0  0  0  0  0  0  0  0  0  0  0  0
   23.4550   10.6763    3.2265 H   0  0  0  0  0  0  0  0  0  0  0  0
  1  2  1  0
  2  3  1  0
  3  4  2  0
  4  5  1  0
  5  6  1  0
  6  7  2  0
  6  8  2  0
  6  9  1  0
  9 10  2  0
 10 11  1  0
 11 12  2  0
 12 13  1  0
 13 14  1  0
 14 15  3  0
 15 16  1  0
 16 17  2  0
 17 18  1  0
 18 19  2  0
 19 20  1  0
 20 21  2  0
 20 22  1  0
 22 23  2  0
 22 24  1  0
 24 25  1  0
 25 26  1  0
 26 27  1  0
 27 28  1  0
 28 29  2  0
 28 30  1  0
 30 31  1  0
 31 32  2  0
 24 33  1  0
 33 34  2  0
 13 35  2  0
  5 36  1  0
 36 37  2  0
 37  3  1  0
 35  9  1  0
 21 16  1  0
 31 25  1  0
 33 19  1  0
  1 38  1  0
  1 39  1  0
  1 40  1  0
  2 41  1  0
  2 42  1  0
  4 43  1  0
 10 44  1  0
 11 45  1  0
 12 46  1  0
 17 47  1  0
 18 48  1  0
 21 49  1  0
 25 50  1  1
 26 51  1  0
 26 52  1  0
 27 53  1  0
 27 54  1  0
 30 55  1  0
 35 56  1  0
 36 57  1  0
M  END
>  <meeko>  (880) 
{"is_sidechain": [true], "free_energy": -11.23, "intermolecular_energy": 0.0, "internal_energy": -11.23, "cluster_size": 19, "cluster_id": 1, "rank_in_cluster": 1}

>  <_RMSD_MCS_to_ref>  (880) 
1.0158300987240363

$$$$
ligand
     RDKit          3D

 61 66  0  0  0  0  0  0  0  0999 V2000
   24.8710    9.6160    7.7820 C   0  0  0  0  0  0  0  0  0  0  0  0
   25.4240   10.9650    7.3490 C   0  0  0  0  0  0  0  0  0  0  0  0
   26.9080   10.9540    7.2360 C   0  0  0  0  0  0  0  0  0  0  0  0
   27.7450   11.8990    6.6780 C   0  0  0  0  0  0  0  0  0  0  0  0
   28.9980   11.3880    6.8610 N   0  0  0  0  0  0  0  0  0  0  0  0
   30.4160   11.9930    6.1950 S   0  0  0  0  0  6  0  0  0  0  0  0
   31.2390   10.8260    5.9450 O   0  0  0  0  0  0  0  0  0  0  0  0
   29.9840   12.8870    5.1380 O   0  0  0  0  0  0  0  0  0  0  0  0
   31.2270   12.9740    7.4300 C   0  0  0  0  0  0  0  0  0  0  0  0
   32.6170   12.9550    7.5450 C   0  0  0  0  0  0  0  0  0  0  0  0
   33.1880   13.7360    8.5250 C   0  0  0  0  0  0  0  0  0  0  0  0
   32.4780   14.5090    9.3670 N   0  0  0  0  0  0  0  0  0  0  0  0
   31.1410   14.5300    9.2580 C   0  0  0  0  0  0  0  0  0  0  0  0
   30.4390   15.3380   10.1390 C   0  0  0  0  0  0  0  0  0  0  0  0
   29.0440   15.4280   10.1110 C   0  0  0  0  0  0  0  0  0  0  0  0
   28.3100   14.6950    9.1810 C   0  0  0  0  0  0  0  0  0  0  0  0
   26.8480   14.7740    9.1380 C   0  0  0  0  0  0  0  0  0  0  0  0
   26.1170   14.1280    8.1200 C   0  0  0  0  0  0  0  0  0  0  0  0
   24.7110   14.2000    8.0560 C   0  0  0  0  0  0  0  0  0  0  0  0
   23.9950   14.9170    9.0120 C   0  0  0  0  0  0  0  0  0  0  0  0
   24.7210   15.5370   10.0100 C   0  0  0  0  0  0  0  0  0  0  0  0
   26.1150   15.4770   10.0870 C   0  0  0  0  0  0  0  0  0  0  0  0
   26.5830   16.2470   11.2800 C   0  0  0  0  0  0  0  0  0  0  0  0
   25.3350   16.6710   11.9030 N   0  0  0  0  0  0  0  0  0  0  0  0
   25.2660   17.6660   12.9670 C   0  0  1  0  0  0  0  0  0  0  0  0
   25.8560   17.1570   14.2800 C   0  0  0  0  0  0  0  0  0  0  0  0
   25.6650   18.2090   15.3600 C   0  0  0  0  0  0  0  0  0  0  0  0
   26.2660   19.5320   14.9450 C   0  0  0  0  0  0  0  0  0  0  0  0
   26.8110   20.2870   15.7460 O   0  0  0  0  0  0  0  0  0  0  0  0
   26.1590   19.8650   13.6190 N   0  0  0  0  0  0  0  0  0  0  0  0
   25.9670   18.9800   12.5830 C   0  0  0  0  0  0  0  0  0  0  0  0
   26.3530   19.2590   11.4500 O   0  0  0  0  0  0  0  0  0  0  0  0
   24.2300   16.3390   11.1350 C   0  0  0  0  0  0  0  0  0  0  0  0
   23.0670   16.6360   11.3290 O   0  0  0  0  0  0  0  0  0  0  0  0
   29.0140   13.8780    8.2830 C   0  0  0  0  0  0  0  0  0  0  0  0
   30.4360   13.7760    8.2990 C   0  0  0  0  0  0  0  0  0  0  0  0
   28.9030   10.1820    7.4790 C   0  0  0  0  0  0  0  0  0  0  0  0
   27.6410    9.8840    7.7120 N   0  0  0  0  0  0  0  0  0  0  0  0
   24.8497    9.5640    8.8806 H   0  0  0  0  0  0  0  0  0  0  0  0
   23.8507    9.4948    7.3893 H   0  0  0  0  0  0  0  0  0  0  0  0
   25.5127    8.8135    7.3893 H   0  0  0  0  0  0  0  0  0  0  0  0
   24.9960   11.2255    6.3697 H   0  0  0  0  0  0  0  0  0  0  0  0
   25.1491   11.7045    8.1155 H   0  0  0  0  0  0  0  0  0  0  0  0
   27.4663   12.8476    6.1958 H   0  0  0  0  0  0  0  0  0  0  0  0
   33.2353   12.3379    6.8764 H   0  0  0  0  0  0  0  0  0  0  0  0
   34.2834   13.7275    8.6248 H   0  0  0  0  0  0  0  0  0  0  0  0
   30.9965   15.9263   10.8828 H   0  0  0  0  0  0  0  0  0  0  0  0
   28.5233   16.0809   10.8270 H   0  0  0  0  0  0  0  0  0  0  0  0
   26.6587   13.5523    7.3551 H   0  0  0  0  0  0  0  0  0  0  0  0
   24.1747   13.6860    7.2447 H   0  0  0  0  0  0  0  0  0  0  0  0
   22.8979   14.9864    8.9736 H   0  0  0  0  0  0  0  0  0  0  0  0
   27.1675   15.6086   11.9589 H   0  0  0  0  0  0  0  0  0  0  0  0
   27.2474   17.0852   11.0232 H   0  0  0  0  0  0  0  0  0  0  0  0
   24.1929   17.8606   13.1109 H   0  0  0  0  0  0  0  0  0  0  0  0
   25.3450   16.2292   14.5768 H   0  0  0  0  0  0  0  0  0  0  0  0
   26.9295   16.9568   14.1475 H   0  0  0  0  0  0  0  0  0  0  0  0
   24.5888   18.3450   15.5424 H   0  0  0  0  0  0  0  0  0  0  0  0
   26.1725   17.8667   16.2740 H   0  0  0  0  0  0  0  0  0  0  0  0
   26.2284   20.8639   13.3777 H   0  0  0  0  0  0  0  0  0  0  0  0
   28.4487   13.2957    7.5405 H   0  0  0  0  0  0  0  0  0  0  0  0
   29.7585    9.5446    7.7469 H   0  0  0  0  0  0  0  0  0  0  0  0
  1  2  1  0
  2  3  1  0
  3  4  2  0
  4  5  1  0
  5  6  1  0
  6  7  2  0
  6  8  2  0
  6  9  1  0
  9 10  2  0
 10 11  1  0
 11 12  2  0
 12 13  1  0
 13 14  2  0
 14 15  1  0
 15 16  2  0
 16 17  1  0
 17 18  2  0
 18 19  1  0
 19 20  2  0
 20 21  1  0
 21 22  2  0
 22 23  1  0
 23 24  1  0
 24 25  1  0
 25 26  1  0
 26 27  1  0
 27 28  1  0
 28 29  2  0
 28 30  1  0
 30 31  1  0
 31 32  2  0
 24 33  1  0
 33 34  2  0
 16 35  1  0
 35 36  2  0
  5 37  1  0
 37 38  2  0
 38  3  1  0
 36  9  1  0
 36 13  1  0
 22 17  1  0
 31 25  1  0
 33 21  1  0
  1 39  1  0
  1 40  1  0
  1 41  1  0
  2 42  1  0
  2 43  1  0
  4 44  1  0
 10 45  1  0
 11 46  1  0
 14 47  1  0
 15 48  1  0
 18 49  1  0
 19 50  1  0
 20 51  1  0
 23 52  1  0
 23 53  1  0
 25 54  1  1
 26 55  1  0
 26 56  1  0
 27 57  1  0
 27 58  1  0
 30 59  1  0
 35 60  1  0
 37 61  1  0
M  END
>  <meeko>  (881) 
{"is_sidechain": [true], "free_energy": -11.23, "intermolecular_energy": 0.0, "internal_energy": -11.23, "cluster_size": 14, "cluster_id": 1, "rank_in_cluster": 1}

>  <_RMSD_MCS_to_ref>  (881) 
1.902955844060614

$$$$
ligand
     RDKit          3D

 49 52  0  0  0  0  0  0  0  0999 V2000
   24.8710    9.6160    7.7820 C   0  0  0  0  0  0  0  0  0  0  0  0
   25.4240   10.9650    7.3490 C   0  0  0  0  0  0  0  0  0  0  0  0
   26.7910   11.2100    7.8830 C   0  0  0  0  0  0  0  0  0  0  0  0
   27.1760   11.9590    8.9760 C   0  0  0  0  0  0  0  0  0  0  0  0
   28.5330   11.8090    9.0230 N   0  0  0  0  0  0  0  0  0  0  0  0
   29.5860   12.6810   10.0090 S   0  0  0  0  0  6  0  0  0  0  0  0
   29.1670   12.3740   11.3640 O   0  0  0  0  0  0  0  0  0  0  0  0
   30.9120   12.3420    9.5300 O   0  0  0  0  0  0  0  0  0  0  0  0
   29.2930   14.2530    9.7030 O   0  0  0  0  0  0  0  0  0  0  0  0
   28.0390   14.7190    9.4110 C   0  0  0  0  0  0  0  0  0  0  0  0
   27.4080   14.6680    8.1710 C   0  0  0  0  0  0  0  0  0  0  0  0
   26.1630   15.1340    7.8980 N   0  0  0  0  0  0  0  0  0  0  0  0
   25.5560   15.6750    8.9670 C   0  0  0  0  0  0  0  0  0  0  0  0
   24.3020   16.2120    8.9480 N   0  0  0  0  0  0  0  0  0  0  0  0
   23.9780   16.6820   10.1960 C   0  0  0  0  0  0  0  0  0  0  0  0
   25.0450   16.4380   11.0520 C   0  0  0  0  0  0  0  0  0  0  0  0
   25.1430   16.7690   12.4730 C   0  0  0  0  0  0  0  0  0  0  0  0
   25.0210   15.9260   13.3570 O   0  0  0  0  0  0  0  0  0  0  0  0
   25.3670   18.0960   12.7590 N   0  0  0  0  0  0  0  0  0  0  0  0
   25.3270   18.5970   14.1240 C   0  0  1  0  0  0  0  0  0  0  0  0
   26.3400   17.9000   15.0260 C   0  0  0  0  0  0  0  0  0  0  0  0
   26.2730   18.5010   16.4220 C   0  0  0  0  0  0  0  0  0  0  0  0
   26.4850   19.9960   16.3860 C   0  0  0  0  0  0  0  0  0  0  0  0
   27.0580   20.6020   17.2870 O   0  0  0  0  0  0  0  0  0  0  0  0
   25.9770   20.6630   15.3010 N   0  0  0  0  0  0  0  0  0  0  0  0
   25.6350   20.0970   14.0980 C   0  0  0  0  0  0  0  0  0  0  0  0
   25.5740   20.7720   13.0700 O   0  0  0  0  0  0  0  0  0  0  0  0
   26.0550   15.7960   10.2580 C   0  0  0  0  0  0  0  0  0  0  0  0
   27.3520   15.2950   10.4830 C   0  0  0  0  0  0  0  0  0  0  0  0
   28.9370   11.0770    7.9550 C   0  0  0  0  0  0  0  0  0  0  0  0
   27.8980   10.6720    7.2540 N   0  0  0  0  0  0  0  0  0  0  0  0
   24.8497    9.5640    8.8806 H   0  0  0  0  0  0  0  0  0  0  0  0
   23.8507    9.4948    7.3893 H   0  0  0  0  0  0  0  0  0  0  0  0
   25.5127    8.8135    7.3893 H   0  0  0  0  0  0  0  0  0  0  0  0
   25.4622   10.9959    6.2501 H   0  0  0  0  0  0  0  0  0  0  0  0
   24.7604   11.7459    7.7488 H   0  0  0  0  0  0  0  0  0  0  0  0
   26.5366   12.5431    9.6542 H   0  0  0  0  0  0  0  0  0  0  0  0
   27.9667   14.2106    7.3411 H   0  0  0  0  0  0  0  0  0  0  0  0
   23.6900   16.2578    8.1208 H   0  0  0  0  0  0  0  0  0  0  0  0
   23.0318   17.1702   10.4724 H   0  0  0  0  0  0  0  0  0  0  0  0
   25.5676   18.7498   11.9888 H   0  0  0  0  0  0  0  0  0  0  0  0
   24.3253   18.3974   14.5323 H   0  0  0  0  0  0  0  0  0  0  0  0
   26.1074   16.8261   15.0775 H   0  0  0  0  0  0  0  0  0  0  0  0
   27.3515   18.0366   14.6159 H   0  0  0  0  0  0  0  0  0  0  0  0
   25.2847   18.2895   16.8562 H   0  0  0  0  0  0  0  0  0  0  0  0
   27.0702   18.0516   17.0324 H   0  0  0  0  0  0  0  0  0  0  0  0
   25.8398   21.6793   15.3972 H   0  0  0  0  0  0  0  0  0  0  0  0
   27.8136   15.3557   11.4796 H   0  0  0  0  0  0  0  0  0  0  0  0
   29.9854   10.8530    7.7088 H   0  0  0  0  0  0  0  0  0  0  0  0
  1  2  1  0
  2  3  1  0
  3  4  2  0
  4  5  1  0
  5  6  1  0
  6  7  2  0
  6  8  2  0
  6  9  1  0
  9 10  1  0
 10 11  2  0
 11 12  1  0
 12 13  2  0
 13 14  1  0
 14 15  1  0
 15 16  2  0
 16 17  1  0
 17 18  2  0
 17 19  1  0
 19 20  1  0
 20 21  1  0
 21 22  1  0
 22 23  1  0
 23 24  2  0
 23 25  1  0
 25 26  1  0
 26 27  2  0
 16 28  1  0
 28 29  2  0
  5 30  1  0
 30 31  2  0
 31  3  1  0
 29 10  1  0
 28 13  1  0
 26 20  1  0
  1 32  1  0
  1 33  1  0
  1 34  1  0
  2 35  1  0
  2 36  1  0
  4 37  1  0
 11 38  1  0
 14 39  1  0
 15 40  1  0
 19 41  1  0
 20 42  1  1
 21 43  1  0
 21 44  1  0
 22 45  1  0
 22 46  1  0
 25 47  1  0
 29 48  1  0
 30 49  1  0
M  END
>  <meeko>  (882) 
{"is_sidechain": [true], "free_energy": -11.23, "intermolecular_energy": 0.0, "internal_energy": -11.23, "cluster_size": 19, "cluster_id": 1, "rank_in_cluster": 1}

>  <_RMSD_MCS_to_ref>  (882) 
0.7737336607501178

$$$$
ligand
     RDKit          3D

 55 59  0  0  0  0  0  0  0  0999 V2000
   24.8540    9.4020    7.6050 C   0  0  0  0  0  0  0  0  0  0  0  0
   25.5230   10.7550    7.4270 C   0  0  0  0  0  0  0  0  0  0  0  0
   25.1120   11.4190    6.1600 C   0  0  0  0  0  0  0  0  0  0  0  0
   25.3540   12.7140    5.7440 C   0  0  0  0  0  0  0  0  0  0  0  0
   24.7780   12.7810    4.5070 N   0  0  0  0  0  0  0  0  0  0  0  0
   24.9890   14.0150    3.3750 S   0  0  0  0  0  6  0  0  0  0  0  0
   26.4250   14.0770    3.1760 O   0  0  0  0  0  0  0  0  0  0  0  0
   24.0970   13.6930    2.2730 O   0  0  0  0  0  0  0  0  0  0  0  0
   24.5080   15.4230    4.0530 O   0  0  0  0  0  0  0  0  0  0  0  0
   25.3020   16.0320    5.0020 C   0  0  0  0  0  0  0  0  0  0  0  0
   26.3890   16.7820    4.5450 C   0  0  0  0  0  0  0  0  0  0  0  0
   27.2330   17.4270    5.4430 C   0  0  0  0  0  0  0  0  0  0  0  0
   26.9980   17.3530    6.8210 C   0  0  0  0  0  0  0  0  0  0  0  0
   25.8870   16.6280    7.3030 C   0  0  0  0  0  0  0  0  0  0  0  0
   25.0560   15.9870    6.3820 C   0  0  0  0  0  0  0  0  0  0  0  0
   24.0570   15.3770    7.1080 N   0  0  0  0  0  0  0  0  0  0  0  0
   24.2310   15.5770    8.4550 C   0  0  0  0  0  0  0  0  0  0  0  0
   23.4810   15.1280    9.5350 C   0  0  0  0  0  0  0  0  0  0  0  0
   23.8640   15.4660   10.7850 N   0  0  0  0  0  0  0  0  0  0  0  0
   24.9750   16.2410   10.9440 C   0  0  0  0  0  0  0  0  0  0  0  0
   25.3430   16.5720   12.3590 C   0  0  0  0  0  0  0  0  0  0  0  0
   25.7450   15.7190   13.1430 O   0  0  0  0  0  0  0  0  0  0  0  0
   25.1790   17.8970   12.6960 N   0  0  0  0  0  0  0  0  0  0  0  0
   25.3250   18.3830   14.0550 C   0  0  1  0  0  0  0  0  0  0  0  0
   26.5890   17.8460   14.7190 C   0  0  0  0  0  0  0  0  0  0  0  0
   26.6970   18.3980   16.1310 C   0  0  0  0  0  0  0  0  0  0  0  0
   26.6620   19.9080   16.1330 C   0  0  0  0  0  0  0  0  0  0  0  0
   27.2800   20.5810   16.9520 O   0  0  0  0  0  0  0  0  0  0  0  0
   25.8710   20.5060   15.1830 N   0  0  0  0  0  0  0  0  0  0  0  0
   25.3770   19.9150   14.0460 C   0  0  0  0  0  0  0  0  0  0  0  0
   24.9880   20.5990   13.1000 O   0  0  0  0  0  0  0  0  0  0  0  0
   25.7670   16.7190    9.9070 C   0  0  0  0  0  0  0  0  0  0  0  0
   25.3700   16.3650    8.6100 C   0  0  0  0  0  0  0  0  0  0  0  0
   24.2490   11.5690    4.1960 C   0  0  0  0  0  0  0  0  0  0  0  0
   24.4200   10.7220    5.1900 N   0  0  0  0  0  0  0  0  0  0  0  0
   24.7464    9.1845    8.6779 H   0  0  0  0  0  0  0  0  0  0  0  0
   23.8606    9.4192    7.1330 H   0  0  0  0  0  0  0  0  0  0  0  0
   25.4708    8.6230    7.1330 H   0  0  0  0  0  0  0  0  0  0  0  0
   25.2463   11.4018    8.2726 H   0  0  0  0  0  0  0  0  0  0  0  0
   26.6104   10.5934    7.3881 H   0  0  0  0  0  0  0  0  0  0  0  0
   25.8881   13.5091    6.2849 H   0  0  0  0  0  0  0  0  0  0  0  0
   26.5790   16.8631    3.4646 H   0  0  0  0  0  0  0  0  0  0  0  0
   28.0930   18.0005    5.0669 H   0  0  0  0  0  0  0  0  0  0  0  0
   27.6761   17.8576    7.5250 H   0  0  0  0  0  0  0  0  0  0  0  0
   23.2809   14.8409    6.6944 H   0  0  0  0  0  0  0  0  0  0  0  0
   22.5880   14.5061    9.3741 H   0  0  0  0  0  0  0  0  0  0  0  0
   24.9431   18.5703   11.9531 H   0  0  0  0  0  0  0  0  0  0  0  0
   24.4585   18.0278   14.6321 H   0  0  0  0  0  0  0  0  0  0  0  0
   26.5438   16.7476   14.7578 H   0  0  0  0  0  0  0  0  0  0  0  0
   27.4684   18.1580   14.1365 H   0  0  0  0  0  0  0  0  0  0  0  0
   25.8554   18.0191   16.7294 H   0  0  0  0  0  0  0  0  0  0  0  0
   27.6563   18.0719   16.5593 H   0  0  0  0  0  0  0  0  0  0  0  0
   25.6242   21.4939   15.3383 H   0  0  0  0  0  0  0  0  0  0  0  0
   26.6555   17.3402   10.0934 H   0  0  0  0  0  0  0  0  0  0  0  0
   23.7479   11.3286    3.2467 H   0  0  0  0  0  0  0  0  0  0  0  0
  1  2  1  0
  2  3  1  0
  3  4  2  0
  4  5  1  0
  5  6  1  0
  6  7  2  0
  6  8  2  0
  6  9  1  0
  9 10  1  0
 10 11  2  0
 11 12  1  0
 12 13  2  0
 13 14  1  0
 14 15  2  0
 15 16  1  0
 16 17  1  0
 17 18  2  0
 18 19  1  0
 19 20  2  0
 20 21  1  0
 21 22  2  0
 21 23  1  0
 23 24  1  0
 24 25  1  0
 25 26  1  0
 26 27  1  0
 27 28  2  0
 27 29  1  0
 29 30  1  0
 30 31  2  0
 20 32  1  0
 32 33  2  0
  5 34  1  0
 34 35  2  0
 35  3  1  0
 15 10  1  0
 33 17  1  0
 33 14  1  0
 30 24  1  0
  1 36  1  0
  1 37  1  0
  1 38  1  0
  2 39  1  0
  2 40  1  0
  4 41  1  0
 11 42  1  0
 12 43  1  0
 13 44  1  0
 16 45  1  0
 18 46  1  0
 23 47  1  0
 24 48  1  1
 25 49  1  0
 25 50  1  0
 26 51  1  0
 26 52  1  0
 29 53  1  0
 32 54  1  0
 34 55  1  0
M  END
>  <meeko>  (883) 
{"is_sidechain": [true], "free_energy": -11.22, "intermolecular_energy": 0.0, "internal_energy": -11.22, "cluster_size": 5, "cluster_id": 2, "rank_in_cluster": 1}

>  <_RMSD_MCS_to_ref>  (883) 
0.6921159986270762

$$$$
ligand
     RDKit          3D

 59 64  0  0  0  0  0  0  0  0999 V2000
   24.8540    9.4020    7.6050 C   0  0  0  0  0  0  0  0  0  0  0  0
   25.5230   10.7550    7.4270 C   0  0  0  0  0  0  0  0  0  0  0  0
   25.0310   11.4710    6.2180 C   0  0  0  0  0  0  0  0  0  0  0  0
   25.0160   12.8270    5.9580 C   0  0  0  0  0  0  0  0  0  0  0  0
   24.4360   12.9240    4.7250 N   0  0  0  0  0  0  0  0  0  0  0  0
   24.3400   14.3140    3.7840 S   0  0  0  0  0  6  0  0  0  0  0  0
   22.9280   14.5840    3.6030 O   0  0  0  0  0  0  0  0  0  0  0  0
   25.2410   14.0870    2.6710 O   0  0  0  0  0  0  0  0  0  0  0  0
   25.0200   15.5790    4.8260 C   0  0  0  0  0  0  0  0  0  0  0  0
   24.6840   15.5930    6.1860 C   0  0  0  0  0  0  0  0  0  0  0  0
   25.1980   16.5710    7.0610 C   0  0  0  0  0  0  0  0  0  0  0  0
   24.8720   16.5980    8.4930 C   0  0  0  0  0  0  0  0  0  0  0  0
   23.6720   16.0060    8.9670 C   0  0  0  0  0  0  0  0  0  0  0  0
   23.3280   16.0260   10.3220 C   0  0  0  0  0  0  0  0  0  0  0  0
   24.2060   16.6440   11.1880 C   0  0  0  0  0  0  0  0  0  0  0  0
   25.3900   17.2360   10.7620 C   0  0  0  0  0  0  0  0  0  0  0  0
   25.7340   17.2220    9.4190 C   0  0  0  0  0  0  0  0  0  0  0  0
   26.1110   17.8320   11.9230 C   0  0  0  0  0  0  0  0  0  0  0  0
   25.2740   17.4440   13.0510 N   0  0  0  0  0  0  0  0  0  0  0  0
   25.4230   17.9960   14.3920 C   0  0  1  0  0  0  0  0  0  0  0  0
   26.6290   17.4240   15.1290 C   0  0  0  0  0  0  0  0  0  0  0  0
   26.6650   17.9780   16.5450 C   0  0  0  0  0  0  0  0  0  0  0  0
   26.6710   19.4890   16.5400 C   0  0  0  0  0  0  0  0  0  0  0  0
   27.2980   20.1460   17.3650 O   0  0  0  0  0  0  0  0  0  0  0  0
   25.9190   20.1010   15.5690 N   0  0  0  0  0  0  0  0  0  0  0  0
   25.5260   19.5320   14.3800 C   0  0  0  0  0  0  0  0  0  0  0  0
   25.2920   20.2370   13.4020 O   0  0  0  0  0  0  0  0  0  0  0  0
   24.1060   16.8150   12.6420 C   0  0  0  0  0  0  0  0  0  0  0  0
   23.1660   16.4630   13.3260 O   0  0  0  0  0  0  0  0  0  0  0  0
   26.0460   17.5210    6.4650 C   0  0  0  0  0  0  0  0  0  0  0  0
   26.6660   18.5580    7.1050 O   0  0  0  0  0  0  0  0  0  0  0  0
   27.3890   19.2340    6.1770 C   0  0  0  0  0  0  0  0  0  0  0  0
   27.2500   18.6530    4.9400 C   0  0  0  0  0  0  0  0  0  0  0  0
   26.3850   17.5380    5.1140 C   0  0  0  0  0  0  0  0  0  0  0  0
   25.8620   16.5500    4.2650 C   0  0  0  0  0  0  0  0  0  0  0  0
   24.1650   11.6780    4.2600 C   0  0  0  0  0  0  0  0  0  0  0  0
   24.5100   10.7690    5.1500 N   0  0  0  0  0  0  0  0  0  0  0  0
   24.7464    9.1845    8.6779 H   0  0  0  0  0  0  0  0  0  0  0  0
   23.8606    9.4192    7.1330 H   0  0  0  0  0  0  0  0  0  0  0  0
   25.4708    8.6230    7.1330 H   0  0  0  0  0  0  0  0  0  0  0  0
   25.3151   11.3723    8.3134 H   0  0  0  0  0  0  0  0  0  0  0  0
   26.6025   10.5841    7.3023 H   0  0  0  0  0  0  0  0  0  0  0  0
   25.3862   13.6422    6.5971 H   0  0  0  0  0  0  0  0  0  0  0  0
   24.0038   14.8234    6.5797 H   0  0  0  0  0  0  0  0  0  0  0  0
   22.9952   15.5189    8.2496 H   0  0  0  0  0  0  0  0  0  0  0  0
   22.3954   15.5677   10.6827 H   0  0  0  0  0  0  0  0  0  0  0  0
   26.6686   17.6922    9.0793 H   0  0  0  0  0  0  0  0  0  0  0  0
   27.1241   17.4141   12.0182 H   0  0  0  0  0  0  0  0  0  0  0  0
   26.2534   18.9194   11.8379 H   0  0  0  0  0  0  0  0  0  0  0  0
   24.5095   17.7011   14.9291 H   0  0  0  0  0  0  0  0  0  0  0  0
   26.5504   16.3274   15.1658 H   0  0  0  0  0  0  0  0  0  0  0  0
   27.5510   17.7071   14.6001 H   0  0  0  0  0  0  0  0  0  0  0  0
   25.7782   17.6244   17.0914 H   0  0  0  0  0  0  0  0  0  0  0  0
   27.5863   17.6274   17.0331 H   0  0  0  0  0  0  0  0  0  0  0  0
   25.6229   21.0715   15.7460 H   0  0  0  0  0  0  0  0  0  0  0  0
   28.0013   20.1236    6.3861 H   0  0  0  0  0  0  0  0  0  0  0  0
   27.7159   18.9848    4.0004 H   0  0  0  0  0  0  0  0  0  0  0  0
   26.1052   16.5378    3.1923 H   0  0  0  0  0  0  0  0  0  0  0  0
   23.7200   11.4577    3.2784 H   0  0  0  0  0  0  0  0  0  0  0  0
  1  2  1  0
  2  3  1  0
  3  4  2  0
  4  5  1  0
  5  6  1  0
  6  7  2  0
  6  8  2  0
  6  9  1  0
  9 10  2  0
 10 11  1  0
 11 12  1  0
 12 13  2  0
 13 14  1  0
 14 15  2  0
 15 16  1  0
 16 17  2  0
 16 18  1  0
 18 19  1  0
 19 20  1  0
 20 21  1  0
 21 22  1  0
 22 23  1  0
 23 24  2  0
 23 25  1  0
 25 26  1  0
 26 27  2  0
 19 28  1  0
 28 29  2  0
 11 30  2  0
 30 31  1  0
 31 32  1  0
 32 33  2  0
 33 34  1  0
 34 35  2  0
  5 36  1  0
 36 37  2  0
 37  3  1  0
 35  9  1  0
 17 12  1  0
 26 20  1  0
 34 30  1  0
 28 15  1  0
  1 38  1  0
  1 39  1  0
  1 40  1  0
  2 41  1  0
  2 42  1  0
  4 43  1  0
 10 44  1  0
 13 45  1  0
 14 46  1  0
 17 47  1  0
 18 48  1  0
 18 49  1  0
 20 50  1  1
 21 51  1  0
 21 52  1  0
 22 53  1  0
 22 54  1  0
 25 55  1  0
 32 56  1  0
 33 57  1  0
 35 58  1  0
 36 59  1  0
M  END
>  <meeko>  (884) 
{"is_sidechain": [true], "free_energy": -11.22, "intermolecular_energy": 0.0, "internal_energy": -11.22, "cluster_size": 20, "cluster_id": 1, "rank_in_cluster": 1}

>  <_RMSD_MCS_to_ref>  (884) 
0.659571915041196

$$$$
ligand
     RDKit          3D

 58 63  0  0  0  0  0  0  0  0999 V2000
   24.8540    9.4020    7.6050 C   0  0  0  0  0  0  0  0  0  0  0  0
   25.5230   10.7550    7.4270 C   0  0  0  0  0  0  0  0  0  0  0  0
   25.0250   11.4750    6.2230 C   0  0  0  0  0  0  0  0  0  0  0  0
   25.0130   12.8310    5.9640 C   0  0  0  0  0  0  0  0  0  0  0  0
   24.4240   12.9330    4.7380 N   0  0  0  0  0  0  0  0  0  0  0  0
   24.3350   14.3230    3.7990 S   0  0  0  0  0  6  0  0  0  0  0  0
   25.2330   14.1030    2.6820 O   0  0  0  0  0  0  0  0  0  0  0  0
   22.9230   14.6010    3.6210 O   0  0  0  0  0  0  0  0  0  0  0  0
   25.0210   15.5820    4.8450 C   0  0  0  0  0  0  0  0  0  0  0  0
   24.6900   15.5870    6.2070 C   0  0  0  0  0  0  0  0  0  0  0  0
   25.2050   16.5700    7.0770 C   0  0  0  0  0  0  0  0  0  0  0  0
   24.8770   16.5930    8.5040 C   0  0  0  0  0  0  0  0  0  0  0  0
   23.6790   16.0010    8.9770 C   0  0  0  0  0  0  0  0  0  0  0  0
   23.3410   16.0220   10.3340 C   0  0  0  0  0  0  0  0  0  0  0  0
   24.2220   16.6420   11.1960 C   0  0  0  0  0  0  0  0  0  0  0  0
   25.4050   17.2360   10.7650 C   0  0  0  0  0  0  0  0  0  0  0  0
   25.7440   17.2220    9.4220 C   0  0  0  0  0  0  0  0  0  0  0  0
   26.1260   17.8400   11.9240 C   0  0  0  0  0  0  0  0  0  0  0  0
   25.2900   17.4530   13.0540 N   0  0  0  0  0  0  0  0  0  0  0  0
   25.4290   18.0240   14.3890 C   0  0  1  0  0  0  0  0  0  0  0  0
   26.6510   17.4890   15.1290 C   0  0  0  0  0  0  0  0  0  0  0  0
   26.6770   18.0620   16.5380 C   0  0  0  0  0  0  0  0  0  0  0  0
   26.6470   19.5730   16.5140 C   0  0  0  0  0  0  0  0  0  0  0  0
   27.2640   20.2550   17.3260 O   0  0  0  0  0  0  0  0  0  0  0  0
   25.8760   20.1540   15.5400 N   0  0  0  0  0  0  0  0  0  0  0  0
   25.4970   19.5610   14.3580 C   0  0  0  0  0  0  0  0  0  0  0  0
   25.2510   20.2480   13.3690 O   0  0  0  0  0  0  0  0  0  0  0  0
   24.1240   16.8200   12.6490 C   0  0  0  0  0  0  0  0  0  0  0  0
   23.1830   16.4690   13.3340 O   0  0  0  0  0  0  0  0  0  0  0  0
   26.0510   17.5540    6.5220 C   0  0  0  0  0  0  0  0  0  0  0  0
   26.7570   18.6960    6.9650 C   0  0  0  0  0  0  0  0  0  0  0  0
   27.4270   19.2990    5.9800 N   0  0  0  0  0  0  0  0  0  0  0  0
   27.1580   18.5510    4.8440 O   0  0  0  0  0  0  0  0  0  0  0  0
   26.3380   17.5150    5.1670 C   0  0  0  0  0  0  0  0  0  0  0  0
   25.8520   16.5570    4.2810 C   0  0  0  0  0  0  0  0  0  0  0  0
   24.1450   11.6880    4.2730 C   0  0  0  0  0  0  0  0  0  0  0  0
   24.4920   10.7770    5.1570 N   0  0  0  0  0  0  0  0  0  0  0  0
   24.7464    9.1845    8.6779 H   0  0  0  0  0  0  0  0  0  0  0  0
   23.8606    9.4192    7.1330 H   0  0  0  0  0  0  0  0  0  0  0  0
   25.4708    8.6230    7.1330 H   0  0  0  0  0  0  0  0  0  0  0  0
   25.3206   11.3699    8.3163 H   0  0  0  0  0  0  0  0  0  0  0  0
   26.6016   10.5835    7.2956 H   0  0  0  0  0  0  0  0  0  0  0  0
   25.3920   13.6437    6.6010 H   0  0  0  0  0  0  0  0  0  0  0  0
   24.0178   14.8118    6.6035 H   0  0  0  0  0  0  0  0  0  0  0  0
   23.0003   15.5144    8.2611 H   0  0  0  0  0  0  0  0  0  0  0  0
   22.4105   15.5628   10.6992 H   0  0  0  0  0  0  0  0  0  0  0  0
   26.6754   17.6943    9.0765 H   0  0  0  0  0  0  0  0  0  0  0  0
   27.1406   17.4260   12.0202 H   0  0  0  0  0  0  0  0  0  0  0  0
   26.2654   18.9275   11.8345 H   0  0  0  0  0  0  0  0  0  0  0  0
   24.5241   17.7143   14.9323 H   0  0  0  0  0  0  0  0  0  0  0  0
   26.5983   16.3914   15.1797 H   0  0  0  0  0  0  0  0  0  0  0  0
   27.5649   17.7861   14.5937 H   0  0  0  0  0  0  0  0  0  0  0  0
   25.8001   17.6944   17.0911 H   0  0  0  0  0  0  0  0  0  0  0  0
   27.6076   17.7397   17.0281 H   0  0  0  0  0  0  0  0  0  0  0  0
   25.5528   21.1175   15.7079 H   0  0  0  0  0  0  0  0  0  0  0  0
   26.7546   19.0490    8.0068 H   0  0  0  0  0  0  0  0  0  0  0  0
   26.1041   16.5658    3.2103 H   0  0  0  0  0  0  0  0  0  0  0  0
   23.6922   11.4713    3.2942 H   0  0  0  0  0  0  0  0  0  0  0  0
  1  2  1  0
  2  3  1  0
  3  4  2  0
  4  5  1  0
  5  6  1  0
  6  7  2  0
  6  8  2  0
  6  9  1  0
  9 10  2  0
 10 11  1  0
 11 12  1  0
 12 13  2  0
 13 14  1  0
 14 15  2  0
 15 16  1  0
 16 17  2  0
 16 18  1  0
 18 19  1  0
 19 20  1  0
 20 21  1  0
 21 22  1  0
 22 23  1  0
 23 24  2  0
 23 25  1  0
 25 26  1  0
 26 27  2  0
 19 28  1  0
 28 29  2  0
 11 30  2  0
 30 31  1  0
 31 32  2  0
 32 33  1  0
 33 34  1  0
 34 35  2  0
  5 36  1  0
 36 37  2  0
 37  3  1  0
 35  9  1  0
 17 12  1  0
 26 20  1  0
 34 30  1  0
 28 15  1  0
  1 38  1  0
  1 39  1  0
  1 40  1  0
  2 41  1  0
  2 42  1  0
  4 43  1  0
 10 44  1  0
 13 45  1  0
 14 46  1  0
 17 47  1  0
 18 48  1  0
 18 49  1  0
 20 50  1  1
 21 51  1  0
 21 52  1  0
 22 53  1  0
 22 54  1  0
 25 55  1  0
 31 56  1  0
 35 57  1  0
 36 58  1  0
M  END
>  <meeko>  (885) 
{"is_sidechain": [true], "free_energy": -11.22, "intermolecular_energy": 0.0, "internal_energy": -11.22, "cluster_size": 20, "cluster_id": 1, "rank_in_cluster": 1}

>  <_RMSD_MCS_to_ref>  (885) 
0.6335833716953815

$$$$
ligand
     RDKit          3D

 48 51  0  0  0  0  0  0  0  0999 V2000
   24.8710    9.6160    7.7820 C   0  0  0  0  0  0  0  0  0  0  0  0
   25.4240   10.9650    7.3490 C   0  0  0  0  0  0  0  0  0  0  0  0
   26.5500   11.4140    8.2140 C   0  0  0  0  0  0  0  0  0  0  0  0
   27.4870   12.3990    7.9780 C   0  0  0  0  0  0  0  0  0  0  0  0
   28.2950   12.3630    9.0780 N   0  0  0  0  0  0  0  0  0  0  0  0
   29.4790   13.4950    9.4670 S   0  0  0  0  0  6  0  0  0  0  0  0
   29.7440   13.2990   10.8800 O   0  0  0  0  0  0  0  0  0  0  0  0
   30.5190   13.3100    8.4720 O   0  0  0  0  0  0  0  0  0  0  0  0
   28.7990   14.9630    9.2550 O   0  0  0  0  0  0  0  0  0  0  0  0
   27.5130   15.2700    9.6290 C   0  0  0  0  0  0  0  0  0  0  0  0
   27.4260   16.2850   10.6750 C   0  0  0  0  0  0  0  0  0  0  0  0
   26.2410   16.7100   11.1690 C   0  0  0  0  0  0  0  0  0  0  0  0
   26.2500   17.7480   12.2480 C   0  0  0  0  0  0  0  0  0  0  0  0
   27.1670   18.5590   12.3500 O   0  0  0  0  0  0  0  0  0  0  0  0
   25.1770   17.7270   13.1080 N   0  0  0  0  0  0  0  0  0  0  0  0
   25.2170   18.4560   14.3650 C   0  0  1  0  0  0  0  0  0  0  0  0
   26.2460   17.8470   15.3090 C   0  0  0  0  0  0  0  0  0  0  0  0
   26.2670   18.6300   16.6120 C   0  0  0  0  0  0  0  0  0  0  0  0
   26.5270   20.0980   16.3670 C   0  0  0  0  0  0  0  0  0  0  0  0
   27.1520   20.7950   17.1590 O   0  0  0  0  0  0  0  0  0  0  0  0
   26.0010   20.6310   15.2170 N   0  0  0  0  0  0  0  0  0  0  0  0
   25.5810   19.9280   14.1120 C   0  0  0  0  0  0  0  0  0  0  0  0
   25.5050   20.4780   13.0150 O   0  0  0  0  0  0  0  0  0  0  0  0
   25.0390   16.1490   10.6480 C   0  0  0  0  0  0  0  0  0  0  0  0
   23.7620   16.3450   10.9110 N   0  0  0  0  0  0  0  0  0  0  0  0
   23.0300   15.5150   10.0950 N   0  0  0  0  0  0  0  0  0  0  0  0
   23.8750   14.8300    9.3550 C   0  0  0  0  0  0  0  0  0  0  0  0
   25.1590   15.1870    9.6590 N   0  0  0  0  0  0  0  0  0  0  0  0
   26.3710   14.7430    9.1440 C   0  0  0  0  0  0  0  0  0  0  0  0
   27.8040   11.4560    9.9610 C   0  0  0  0  0  0  0  0  0  0  0  0
   26.7560   10.8400    9.4530 N   0  0  0  0  0  0  0  0  0  0  0  0
   24.8497    9.5640    8.8806 H   0  0  0  0  0  0  0  0  0  0  0  0
   23.8507    9.4948    7.3893 H   0  0  0  0  0  0  0  0  0  0  0  0
   25.5127    8.8135    7.3893 H   0  0  0  0  0  0  0  0  0  0  0  0
   25.7835   10.8846    6.3125 H   0  0  0  0  0  0  0  0  0  0  0  0
   24.6152   11.7055    7.4352 H   0  0  0  0  0  0  0  0  0  0  0  0
   27.5651   13.0617    7.1035 H   0  0  0  0  0  0  0  0  0  0  0  0
   28.3549   16.7182   11.0743 H   0  0  0  0  0  0  0  0  0  0  0  0
   24.3352   17.1884   12.8585 H   0  0  0  0  0  0  0  0  0  0  0  0
   24.2205   18.3926   14.8264 H   0  0  0  0  0  0  0  0  0  0  0  0
   25.9795   16.7999   15.5151 H   0  0  0  0  0  0  0  0  0  0  0  0
   27.2409   17.8879   14.8415 H   0  0  0  0  0  0  0  0  0  0  0  0
   25.2944   18.5173   17.1133 H   0  0  0  0  0  0  0  0  0  0  0  0
   27.0778   18.2344   17.2414 H   0  0  0  0  0  0  0  0  0  0  0  0
   25.9122   21.6564   15.1776 H   0  0  0  0  0  0  0  0  0  0  0  0
   23.5901   14.0802    8.6023 H   0  0  0  0  0  0  0  0  0  0  0  0
   26.3979   13.9762    8.3557 H   0  0  0  0  0  0  0  0  0  0  0  0
   28.2223   11.2627   10.9598 H   0  0  0  0  0  0  0  0  0  0  0  0
  1  2  1  0
  2  3  1  0
  3  4  2  0
  4  5  1  0
  5  6  1  0
  6  7  2  0
  6  8  2  0
  6  9  1  0
  9 10  1  0
 10 11  1  0
 11 12  2  0
 12 13  1  0
 13 14  2  0
 13 15  1  0
 15 16  1  0
 16 17  1  0
 17 18  1  0
 18 19  1  0
 19 20  2  0
 19 21  1  0
 21 22  1  0
 22 23  2  0
 12 24  1  0
 24 25  2  0
 25 26  1  0
 26 27  2  0
 27 28  1  0
 28 29  1  0
  5 30  1  0
 30 31  2  0
 31  3  1  0
 29 10  2  0
 22 16  1  0
 28 24  1  0
  1 32  1  0
  1 33  1  0
  1 34  1  0
  2 35  1  0
  2 36  1  0
  4 37  1  0
 11 38  1  0
 15 39  1  0
 16 40  1  1
 17 41  1  0
 17 42  1  0
 18 43  1  0
 18 44  1  0
 21 45  1  0
 27 46  1  0
 29 47  1  0
 30 48  1  0
M  END
>  <meeko>  (886) 
{"is_sidechain": [true], "free_energy": -11.22, "intermolecular_energy": 0.0, "internal_energy": -11.22, "cluster_size": 7, "cluster_id": 1, "rank_in_cluster": 1}

>  <_RMSD_MCS_to_ref>  (886) 
0.6046832044779956

$$$$
ligand
     RDKit          3D

 55 59  0  0  0  0  0  0  0  0999 V2000
   24.8540    9.4010    7.6050 C   0  0  0  0  0  0  0  0  0  0  0  0
   25.5230   10.7560    7.4270 C   0  0  0  0  0  0  0  0  0  0  0  0
   26.9710   10.6280    7.1090 C   0  0  0  0  0  0  0  0  0  0  0  0
   27.6450   11.0240    5.9720 C   0  0  0  0  0  0  0  0  0  0  0  0
   28.9480   10.6960    6.2210 N   0  0  0  0  0  0  0  0  0  0  0  0
   30.2920   11.2540    5.3590 S   0  0  0  0  0  6  0  0  0  0  0  0
   30.2020   10.6110    4.0620 O   0  0  0  0  0  0  0  0  0  0  0  0
   31.4120   10.9990    6.2470 O   0  0  0  0  0  0  0  0  0  0  0  0
   30.1460   12.8770    5.1780 O   0  0  0  0  0  0  0  0  0  0  0  0
   29.3770   13.5800    6.0660 C   0  0  0  0  0  0  0  0  0  0  0  0
   28.0440   13.8210    5.7260 C   0  0  0  0  0  0  0  0  0  0  0  0
   27.2280   14.5620    6.5830 C   0  0  0  0  0  0  0  0  0  0  0  0
   27.7670   15.0470    7.7770 C   0  0  0  0  0  0  0  0  0  0  0  0
   29.0930   14.7820    8.1310 C   0  0  0  0  0  0  0  0  0  0  0  0
   29.8960   14.0240    7.2810 C   0  0  0  0  0  0  0  0  0  0  0  0
   29.6490   15.1660    9.3180 O   0  0  0  0  0  0  0  0  0  0  0  0
   29.0520   16.2760   10.0180 C   0  0  0  0  0  0  0  0  0  0  0  0
   27.5960   16.3660    9.7910 C   0  0  0  0  0  0  0  0  0  0  0  0
   26.5730   17.0140   10.4560 C   0  0  0  0  0  0  0  0  0  0  0  0
   26.6750   17.8020   11.6840 C   0  0  0  0  0  0  0  0  0  0  0  0
   27.6920   18.4030   12.0180 O   0  0  0  0  0  0  0  0  0  0  0  0
   25.5190   17.7920   12.4240 N   0  0  0  0  0  0  0  0  0  0  0  0
   25.4350   18.3700   13.7500 C   0  0  1  0  0  0  0  0  0  0  0  0
   26.4190   17.7220   14.7180 C   0  0  0  0  0  0  0  0  0  0  0  0
   26.2980   18.3800   16.0840 C   0  0  0  0  0  0  0  0  0  0  0  0
   26.5040   19.8740   15.9920 C   0  0  0  0  0  0  0  0  0  0  0  0
   27.0240   20.5240   16.8940 O   0  0  0  0  0  0  0  0  0  0  0  0
   26.0460   20.4880   14.8530 N   0  0  0  0  0  0  0  0  0  0  0  0
   25.7270   19.8730   13.6670 C   0  0  0  0  0  0  0  0  0  0  0  0
   25.6660   20.5150   12.6210 O   0  0  0  0  0  0  0  0  0  0  0  0
   25.3810   16.8370    9.7690 N   0  0  0  0  0  0  0  0  0  0  0  0
   25.6910   16.1110    8.7150 C   0  0  0  0  0  0  0  0  0  0  0  0
   27.0220   15.7920    8.6920 N   0  0  0  0  0  0  0  0  0  0  0  0
   29.0380   10.1490    7.4620 C   0  0  0  0  0  0  0  0  0  0  0  0
   27.8500   10.0830    8.0250 N   0  0  0  0  0  0  0  0  0  0  0  0
   24.7465    9.1833    8.6779 H   0  0  0  0  0  0  0  0  0  0  0  0
   23.8606    9.4177    7.1329 H   0  0  0  0  0  0  0  0  0  0  0  0
   25.4713    8.6225    7.1329 H   0  0  0  0  0  0  0  0  0  0  0  0
   25.0255   11.2920    6.6053 H   0  0  0  0  0  0  0  0  0  0  0  0
   25.4318   11.3059    8.3753 H   0  0  0  0  0  0  0  0  0  0  0  0
   27.2282   11.4963    5.0702 H   0  0  0  0  0  0  0  0  0  0  0  0
   27.6370   13.4270    4.7831 H   0  0  0  0  0  0  0  0  0  0  0  0
   26.1780   14.7606    6.3223 H   0  0  0  0  0  0  0  0  0  0  0  0
   30.9296   13.7784    7.5662 H   0  0  0  0  0  0  0  0  0  0  0  0
   29.2347   16.1536   11.0958 H   0  0  0  0  0  0  0  0  0  0  0  0
   29.5094   17.2000    9.6344 H   0  0  0  0  0  0  0  0  0  0  0  0
   24.6775   17.3561   12.0205 H   0  0  0  0  0  0  0  0  0  0  0  0
   24.4183   18.1922   14.1305 H   0  0  0  0  0  0  0  0  0  0  0  0
   26.1926   16.6492   14.8069 H   0  0  0  0  0  0  0  0  0  0  0  0
   27.4436   17.8516   14.3392 H   0  0  0  0  0  0  0  0  0  0  0  0
   25.2956   18.1806   16.4906 H   0  0  0  0  0  0  0  0  0  0  0  0
   27.0741   17.9616   16.7417 H   0  0  0  0  0  0  0  0  0  0  0  0
   25.9301   21.5107   14.8915 H   0  0  0  0  0  0  0  0  0  0  0  0
   24.9684   15.7989    7.9466 H   0  0  0  0  0  0  0  0  0  0  0  0
   29.9733    9.8089    7.9306 H   0  0  0  0  0  0  0  0  0  0  0  0
  1  2  1  0
  2  3  1  0
  3  4  2  0
  4  5  1  0
  5  6  1  0
  6  7  2  0
  6  8  2  0
  6  9  1  0
  9 10  1  0
 10 11  2  0
 11 12  1  0
 12 13  2  0
 13 14  1  0
 14 15  2  0
 14 16  1  0
 16 17  1  0
 17 18  1  0
 18 19  2  0
 19 20  1  0
 20 21  2  0
 20 22  1  0
 22 23  1  0
 23 24  1  0
 24 25  1  0
 25 26  1  0
 26 27  2  0
 26 28  1  0
 28 29  1  0
 29 30  2  0
 19 31  1  0
 31 32  2  0
 32 33  1  0
  5 34  1  0
 34 35  2  0
 35  3  1  0
 15 10  1  0
 33 18  1  0
 33 13  1  0
 29 23  1  0
  1 36  1  0
  1 37  1  0
  1 38  1  0
  2 39  1  0
  2 40  1  0
  4 41  1  0
 11 42  1  0
 12 43  1  0
 15 44  1  0
 17 45  1  0
 17 46  1  0
 22 47  1  0
 23 48  1  1
 24 49  1  0
 24 50  1  0
 25 51  1  0
 25 52  1  0
 28 53  1  0
 32 54  1  0
 34 55  1  0
M  END
>  <meeko>  (887) 
{"is_sidechain": [true], "free_energy": -11.21, "intermolecular_energy": 0.0, "internal_energy": -11.21, "cluster_size": 20, "cluster_id": 1, "rank_in_cluster": 1}

>  <_RMSD_MCS_to_ref>  (887) 
0.9751749700552311

$$$$
ligand
     RDKit          3D

 61 66  0  0  0  0  0  0  0  0999 V2000
   24.8540    9.4020    7.6050 C   0  0  0  0  0  0  0  0  0  0  0  0
   25.5230   10.7550    7.4270 C   0  0  0  0  0  0  0  0  0  0  0  0
   25.4830   11.2210    6.0140 C   0  0  0  0  0  0  0  0  0  0  0  0
   26.4000   11.9940    5.3280 C   0  0  0  0  0  0  0  0  0  0  0  0
   25.8660   12.1100    4.0770 N   0  0  0  0  0  0  0  0  0  0  0  0
   26.5340   12.9880    2.8010 S   0  0  0  0  0  6  0  0  0  0  0  0
   25.6960   12.7240    1.6460 O   0  0  0  0  0  0  0  0  0  0  0  0
   27.9290   12.5780    2.8020 O   0  0  0  0  0  0  0  0  0  0  0  0
   26.5000   14.5770    3.1500 O   0  0  0  0  0  0  0  0  0  0  0  0
   26.2640   14.9880    4.4340 C   0  0  0  0  0  0  0  0  0  0  0  0
   27.1370   15.9060    4.9840 C   0  0  0  0  0  0  0  0  0  0  0  0
   26.9310   16.2910    6.3080 C   0  0  0  0  0  0  0  0  0  0  0  0
   25.8940   15.7530    7.0550 C   0  0  0  0  0  0  0  0  0  0  0  0
   25.7180   16.1360    8.3340 N   0  0  0  0  0  0  0  0  0  0  0  0
   24.7060   15.5800    9.0500 C   0  0  0  0  0  0  0  0  0  0  0  0
   24.5810   16.0420   10.4490 C   0  0  0  0  0  0  0  0  0  0  0  0
   23.4320   15.7520   11.2330 C   0  0  0  0  0  0  0  0  0  0  0  0
   23.3090   16.1880   12.5590 C   0  0  0  0  0  0  0  0  0  0  0  0
   24.3530   16.9170   13.0860 C   0  0  0  0  0  0  0  0  0  0  0  0
   25.5000   17.2160   12.3590 C   0  0  0  0  0  0  0  0  0  0  0  0
   25.6260   16.7840   11.0480 C   0  0  0  0  0  0  0  0  0  0  0  0
   26.4580   17.9860   13.2050 C   0  0  0  0  0  0  0  0  0  0  0  0
   25.7050   18.1800   14.4390 N   0  0  0  0  0  0  0  0  0  0  0  0
   26.3000   18.6720   15.6750 C   0  0  2  0  0  0  0  0  0  0  0  0
   25.2490   19.0760   16.7060 C   0  0  0  0  0  0  0  0  0  0  0  0
   25.9410   19.4900   17.9960 C   0  0  0  0  0  0  0  0  0  0  0  0
   26.9440   20.5930   17.7480 C   0  0  0  0  0  0  0  0  0  0  0  0
   27.1430   21.4930   18.5580 O   0  0  0  0  0  0  0  0  0  0  0  0
   27.6420   20.5340   16.5690 N   0  0  0  0  0  0  0  0  0  0  0  0
   27.2480   19.8590   15.4360 C   0  0  0  0  0  0  0  0  0  0  0  0
   27.6430   20.2230   14.3300 O   0  0  0  0  0  0  0  0  0  0  0  0
   24.5000   17.4910   14.4280 C   0  0  0  0  0  0  0  0  0  0  0  0
   23.6970   17.3700   15.3330 O   0  0  0  0  0  0  0  0  0  0  0  0
   23.8520   14.6450    8.4760 C   0  0  0  0  0  0  0  0  0  0  0  0
   24.0490   14.2670    7.1470 C   0  0  0  0  0  0  0  0  0  0  0  0
   25.0760   14.8120    6.4000 C   0  0  0  0  0  0  0  0  0  0  0  0
   25.2520   14.4310    5.1180 N   0  0  0  0  0  0  0  0  0  0  0  0
   24.6890   11.4360    4.0270 C   0  0  0  0  0  0  0  0  0  0  0  0
   24.4220   10.8850    5.1940 N   0  0  0  0  0  0  0  0  0  0  0  0
   24.7464    9.1845    8.6779 H   0  0  0  0  0  0  0  0  0  0  0  0
   23.8606    9.4192    7.1330 H   0  0  0  0  0  0  0  0  0  0  0  0
   25.4708    8.6230    7.1330 H   0  0  0  0  0  0  0  0  0  0  0  0
   25.0046   11.4921    8.0578 H   0  0  0  0  0  0  0  0  0  0  0  0
   26.5786   10.6504    7.7181 H   0  0  0  0  0  0  0  0  0  0  0  0
   27.3430   12.4182    5.7034 H   0  0  0  0  0  0  0  0  0  0  0  0
   27.9690   16.3205    4.3957 H   0  0  0  0  0  0  0  0  0  0  0  0
   27.6012   17.0327    6.7670 H   0  0  0  0  0  0  0  0  0  0  0  0
   22.6145   15.1677   10.7856 H   0  0  0  0  0  0  0  0  0  0  0  0
   22.4142   15.9574   13.1558 H   0  0  0  0  0  0  0  0  0  0  0  0
   26.5356   17.0174   10.4752 H   0  0  0  0  0  0  0  0  0  0  0  0
   27.3781   17.4113   13.3871 H   0  0  0  0  0  0  0  0  0  0  0  0
   26.7924   18.9267   12.7431 H   0  0  0  0  0  0  0  0  0  0  0  0
   26.8809   17.8265   16.0721 H   0  0  0  0  0  0  0  0  0  0  0  0
   24.6597   19.9200   16.3182 H   0  0  0  0  0  0  0  0  0  0  0  0
   24.5813   18.2245   16.9037 H   0  0  0  0  0  0  0  0  0  0  0  0
   25.1846   19.8468   18.7105 H   0  0  0  0  0  0  0  0  0  0  0  0
   26.4752   18.6176   18.4004 H   0  0  0  0  0  0  0  0  0  0  0  0
   28.5390   21.0386   16.5278 H   0  0  0  0  0  0  0  0  0  0  0  0
   23.0304   14.2081    9.0626 H   0  0  0  0  0  0  0  0  0  0  0  0
   23.3781   13.5257    6.6882 H   0  0  0  0  0  0  0  0  0  0  0  0
   24.0475   11.3602    3.1367 H   0  0  0  0  0  0  0  0  0  0  0  0
  1  2  1  0
  2  3  1  0
  3  4  2  0
  4  5  1  0
  5  6  1  0
  6  7  2  0
  6  8  2  0
  6  9  1  0
  9 10  1  0
 10 11  2  0
 11 12  1  0
 12 13  2  0
 13 14  1  0
 14 15  2  0
 15 16  1  0
 16 17  2  0
 17 18  1  0
 18 19  2  0
 19 20  1  0
 20 21  2  0
 20 22  1  0
 22 23  1  0
 23 24  1  0
 24 25  1  0
 25 26  1  0
 26 27  1  0
 27 28  2  0
 27 29  1  0
 29 30  1  0
 30 31  2  0
 23 32  1  0
 32 33  2  0
 15 34  1  0
 34 35  2  0
 35 36  1  0
 36 37  2  0
  5 38  1  0
 38 39  2  0
 39  3  1  0
 37 10  1  0
 36 13  1  0
 21 16  1  0
 30 24  1  0
 32 19  1  0
  1 40  1  0
  1 41  1  0
  1 42  1  0
  2 43  1  0
  2 44  1  0
  4 45  1  0
 11 46  1  0
 12 47  1  0
 17 48  1  0
 18 49  1  0
 21 50  1  0
 22 51  1  0
 22 52  1  0
 24 53  1  1
 25 54  1  0
 25 55  1  0
 26 56  1  0
 26 57  1  0
 29 58  1  0
 34 59  1  0
 35 60  1  0
 38 61  1  0
M  END
>  <meeko>  (888) 
{"is_sidechain": [true], "free_energy": -11.21, "intermolecular_energy": 0.0, "internal_energy": -11.21, "cluster_size": 14, "cluster_id": 1, "rank_in_cluster": 1}

>  <_RMSD_MCS_to_ref>  (888) 
1.9908713056236338

$$$$
ligand
     RDKit          3D

 55 59  0  0  0  0  0  0  0  0999 V2000
   24.8540    9.4020    7.6050 C   0  0  0  0  0  0  0  0  0  0  0  0
   25.5230   10.7550    7.4270 C   0  0  0  0  0  0  0  0  0  0  0  0
   25.0020   11.4890    6.2430 C   0  0  0  0  0  0  0  0  0  0  0  0
   25.2930   12.7700    5.8170 C   0  0  0  0  0  0  0  0  0  0  0  0
   24.5560   12.9210    4.6780 N   0  0  0  0  0  0  0  0  0  0  0  0
   24.3910   14.3430    3.7960 S   0  0  0  0  0  6  0  0  0  0  0  0
   22.9690   14.6210    3.7370 O   0  0  0  0  0  0  0  0  0  0  0  0
   25.1930   14.1430    2.6040 O   0  0  0  0  0  0  0  0  0  0  0  0
   25.1590   15.5780    4.8020 C   0  0  0  0  0  0  0  0  0  0  0  0
   26.0870   16.4580    4.2420 C   0  0  0  0  0  0  0  0  0  0  0  0
   26.7000   17.4100    5.0540 C   0  0  0  0  0  0  0  0  0  0  0  0
   26.3900   17.4760    6.4180 C   0  0  0  0  0  0  0  0  0  0  0  0
   25.4560   16.5960    6.9840 C   0  0  0  0  0  0  0  0  0  0  0  0
   25.1560   16.6570    8.4060 C   0  0  0  0  0  0  0  0  0  0  0  0
   24.0200   16.2160    9.1180 C   0  0  0  0  0  0  0  0  0  0  0  0
   24.0880   16.4600   10.4260 N   0  0  0  0  0  0  0  0  0  0  0  0
   25.2870   17.0910   10.5880 N   0  0  0  0  0  0  0  0  0  0  0  0
   25.8410   17.5710   11.8090 C   0  0  0  0  0  0  0  0  0  0  0  0
   25.0720   17.3900   12.9630 N   0  0  0  0  0  0  0  0  0  0  0  0
   25.1670   18.1480   14.2100 C   0  0  1  0  0  0  0  0  0  0  0  0
   26.3010   17.5900   15.0650 C   0  0  0  0  0  0  0  0  0  0  0  0
   26.4320   18.4050   16.3420 C   0  0  0  0  0  0  0  0  0  0  0  0
   26.6570   19.8660   16.0370 C   0  0  0  0  0  0  0  0  0  0  0  0
   27.2950   20.6020   16.7850 O   0  0  0  0  0  0  0  0  0  0  0  0
   26.0670   20.3520   14.8990 N   0  0  0  0  0  0  0  0  0  0  0  0
   25.4540   19.6290   13.9030 C   0  0  0  0  0  0  0  0  0  0  0  0
   25.1430   20.1670   12.8420 O   0  0  0  0  0  0  0  0  0  0  0  0
   27.0480   18.1600   11.7590 C   0  0  0  0  0  0  0  0  0  0  0  0
   27.6880   18.2580   10.4210 C   0  0  0  0  0  0  0  0  0  0  0  0
   27.2000   17.8250    9.3000 N   0  0  0  0  0  0  0  0  0  0  0  0
   25.9720   17.2210    9.3720 C   0  0  0  0  0  0  0  0  0  0  0  0
   24.8250   15.6580    6.1570 C   0  0  0  0  0  0  0  0  0  0  0  0
   23.8280   11.7940    4.4670 C   0  0  0  0  0  0  0  0  0  0  0  0
   24.0860   10.8950    5.3940 N   0  0  0  0  0  0  0  0  0  0  0  0
   24.7464    9.1845    8.6779 H   0  0  0  0  0  0  0  0  0  0  0  0
   23.8606    9.4192    7.1330 H   0  0  0  0  0  0  0  0  0  0  0  0
   25.4708    8.6230    7.1330 H   0  0  0  0  0  0  0  0  0  0  0  0
   25.3417   11.3608    8.3271 H   0  0  0  0  0  0  0  0  0  0  0  0
   26.5979   10.5817    7.2703 H   0  0  0  0  0  0  0  0  0  0  0  0
   25.9655   13.5019    6.2882 H   0  0  0  0  0  0  0  0  0  0  0  0
   26.3316   16.4004    3.1711 H   0  0  0  0  0  0  0  0  0  0  0  0
   27.4292   18.1115    4.6225 H   0  0  0  0  0  0  0  0  0  0  0  0
   26.8845   18.2263    7.0525 H   0  0  0  0  0  0  0  0  0  0  0  0
   23.1627   15.7196    8.6399 H   0  0  0  0  0  0  0  0  0  0  0  0
   24.3632   16.6433   12.9312 H   0  0  0  0  0  0  0  0  0  0  0  0
   24.2138   18.0620   14.7522 H   0  0  0  0  0  0  0  0  0  0  0  0
   26.0840   16.5424   15.3210 H   0  0  0  0  0  0  0  0  0  0  0  0
   27.2432   17.6459   14.5001 H   0  0  0  0  0  0  0  0  0  0  0  0
   25.5091   18.2995   16.9311 H   0  0  0  0  0  0  0  0  0  0  0  0
   27.2981   18.0299   16.9070 H   0  0  0  0  0  0  0  0  0  0  0  0
   26.0849   21.3745   14.7762 H   0  0  0  0  0  0  0  0  0  0  0  0
   27.5379   18.5502   12.6633 H   0  0  0  0  0  0  0  0  0  0  0  0
   28.6729   18.7460   10.3772 H   0  0  0  0  0  0  0  0  0  0  0  0
   24.0643   14.9823    6.5751 H   0  0  0  0  0  0  0  0  0  0  0  0
   23.1207   11.6519    3.6366 H   0  0  0  0  0  0  0  0  0  0  0  0
  1  2  1  0
  2  3  1  0
  3  4  2  0
  4  5  1  0
  5  6  1  0
  6  7  2  0
  6  8  2  0
  6  9  1  0
  9 10  2  0
 10 11  1  0
 11 12  2  0
 12 13  1  0
 13 14  1  0
 14 15  1  0
 15 16  2  0
 16 17  1  0
 17 18  1  0
 18 19  1  0
 19 20  1  0
 20 21  1  0
 21 22  1  0
 22 23  1  0
 23 24  2  0
 23 25  1  0
 25 26  1  0
 26 27  2  0
 18 28  2  0
 28 29  1  0
 29 30  2  0
 30 31  1  0
 13 32  2  0
  5 33  1  0
 33 34  2  0
 34  3  1  0
 32  9  1  0
 31 14  2  0
 31 17  1  0
 26 20  1  0
  1 35  1  0
  1 36  1  0
  1 37  1  0
  2 38  1  0
  2 39  1  0
  4 40  1  0
 10 41  1  0
 11 42  1  0
 12 43  1  0
 15 44  1  0
 19 45  1  0
 20 46  1  1
 21 47  1  0
 21 48  1  0
 22 49  1  0
 22 50  1  0
 25 51  1  0
 28 52  1  0
 29 53  1  0
 32 54  1  0
 33 55  1  0
M  END
>  <meeko>  (889) 
{"is_sidechain": [true], "free_energy": -11.21, "intermolecular_energy": 0.0, "internal_energy": -11.21, "cluster_size": 19, "cluster_id": 1, "rank_in_cluster": 1}

>  <_RMSD_MCS_to_ref>  (889) 
0.6650943124433135

$$$$
ligand
     RDKit          3D

 54 58  0  0  0  0  0  0  0  0999 V2000
   24.8540    9.4020    7.6050 C   0  0  0  0  0  0  0  0  0  0  0  0
   25.5230   10.7550    7.4270 C   0  0  0  0  0  0  0  0  0  0  0  0
   25.3140   11.3110    6.0620 C   0  0  0  0  0  0  0  0  0  0  0  0
   24.5000   12.3510    5.6620 C   0  0  0  0  0  0  0  0  0  0  0  0
   24.6740   12.4120    4.3080 N   0  0  0  0  0  0  0  0  0  0  0  0
   24.1120   13.6360    3.2970 S   0  0  0  0  0  6  0  0  0  0  0  0
   24.5040   13.2240    1.9620 O   0  0  0  0  0  0  0  0  0  0  0  0
   22.7140   13.8000    3.6560 O   0  0  0  0  0  0  0  0  0  0  0  0
   24.9350   14.9760    3.7100 O   0  0  0  0  0  0  0  0  0  0  0  0
   25.1890   15.2530    4.9790 C   0  0  0  0  0  0  0  0  0  0  0  0
   24.4500   15.4710    6.1220 C   0  0  0  0  0  0  0  0  0  0  0  0
   25.3810   15.7190    7.1710 C   0  0  0  0  0  0  0  0  0  0  0  0
   25.1530   16.0200    8.5760 C   0  0  0  0  0  0  0  0  0  0  0  0
   24.0300   15.4670    9.2380 C   0  0  0  0  0  0  0  0  0  0  0  0
   23.7730   15.7230   10.5940 C   0  0  0  0  0  0  0  0  0  0  0  0
   24.6520   16.5370   11.2800 C   0  0  0  0  0  0  0  0  0  0  0  0
   25.7560   17.0800   10.6250 C   0  0  0  0  0  0  0  0  0  0  0  0
   26.0350   16.8410    9.2920 C   0  0  0  0  0  0  0  0  0  0  0  0
   26.5120   17.8790   11.5930 C   0  0  0  0  0  0  0  0  0  0  0  0
   27.5710   18.4330   11.3670 O   0  0  0  0  0  0  0  0  0  0  0  0
   25.8100   17.8350   12.7870 N   0  0  0  0  0  0  0  0  0  0  0  0
   26.3600   18.3560   14.0350 C   0  0  2  0  0  0  0  0  0  0  0  0
   25.9800   17.4570   15.2130 C   0  0  0  0  0  0  0  0  0  0  0  0
   26.6700   17.9450   16.4760 C   0  0  0  0  0  0  0  0  0  0  0  0
   26.3400   19.3910   16.7560 C   0  0  0  0  0  0  0  0  0  0  0  0
   26.2550   19.8380   17.8950 O   0  0  0  0  0  0  0  0  0  0  0  0
   26.1680   20.2020   15.6630 N   0  0  0  0  0  0  0  0  0  0  0  0
   25.9750   19.8090   14.3580 C   0  0  0  0  0  0  0  0  0  0  0  0
   25.5470   20.6140   13.5330 O   0  0  0  0  0  0  0  0  0  0  0  0
   24.6350   16.9740   12.7080 C   0  0  0  0  0  0  0  0  0  0  0  0
   26.6260   15.6390    6.5780 C   0  0  0  0  0  0  0  0  0  0  0  0
   26.5150   15.3550    5.2550 O   0  0  0  0  0  0  0  0  0  0  0  0
   25.6120   11.5020    3.9400 C   0  0  0  0  0  0  0  0  0  0  0  0
   26.0010   10.7940    4.9800 N   0  0  0  0  0  0  0  0  0  0  0  0
   24.7464    9.1845    8.6779 H   0  0  0  0  0  0  0  0  0  0  0  0
   23.8606    9.4192    7.1330 H   0  0  0  0  0  0  0  0  0  0  0  0
   25.4708    8.6230    7.1330 H   0  0  0  0  0  0  0  0  0  0  0  0
   25.1041   11.4568    8.1632 H   0  0  0  0  0  0  0  0  0  0  0  0
   26.6046   10.6186    7.5739 H   0  0  0  0  0  0  0  0  0  0  0  0
   23.8576   12.9860    6.2898 H   0  0  0  0  0  0  0  0  0  0  0  0
   23.3534   15.4563    6.2074 H   0  0  0  0  0  0  0  0  0  0  0  0
   23.3412   14.8200    8.6750 H   0  0  0  0  0  0  0  0  0  0  0  0
   22.8963   15.2875   11.0957 H   0  0  0  0  0  0  0  0  0  0  0  0
   26.9202   17.2808    8.8092 H   0  0  0  0  0  0  0  0  0  0  0  0
   27.4489   18.3553   13.8792 H   0  0  0  0  0  0  0  0  0  0  0  0
   24.8900   17.4860   15.3578 H   0  0  0  0  0  0  0  0  0  0  0  0
   26.2982   16.4257   15.0005 H   0  0  0  0  0  0  0  0  0  0  0  0
   26.3385   17.3305   17.3260 H   0  0  0  0  0  0  0  0  0  0  0  0
   27.7573   17.8577   16.3341 H   0  0  0  0  0  0  0  0  0  0  0  0
   26.1852   21.2168   15.8382 H   0  0  0  0  0  0  0  0  0  0  0  0
   24.7254   16.1143   13.3882 H   0  0  0  0  0  0  0  0  0  0  0  0
   23.7018   17.4764   13.0024 H   0  0  0  0  0  0  0  0  0  0  0  0
   27.5794   15.7857    7.1067 H   0  0  0  0  0  0  0  0  0  0  0  0
   25.9937   11.3740    2.9163 H   0  0  0  0  0  0  0  0  0  0  0  0
  1  2  1  0
  2  3  1  0
  3  4  2  0
  4  5  1  0
  5  6  1  0
  6  7  2  0
  6  8  2  0
  6  9  1  0
  9 10  1  0
 10 11  2  0
 11 12  1  0
 12 13  1  0
 13 14  2  0
 14 15  1  0
 15 16  2  0
 16 17  1  0
 17 18  2  0
 17 19  1  0
 19 20  2  0
 19 21  1  0
 21 22  1  0
 22 23  1  0
 23 24  1  0
 24 25  1  0
 25 26  2  0
 25 27  1  0
 27 28  1  0
 28 29  2  0
 21 30  1  0
 12 31  2  0
 31 32  1  0
  5 33  1  0
 33 34  2  0
 34  3  1  0
 32 10  1  0
 18 13  1  0
 28 22  1  0
 30 16  1  0
  1 35  1  0
  1 36  1  0
  1 37  1  0
  2 38  1  0
  2 39  1  0
  4 40  1  0
 11 41  1  0
 14 42  1  0
 15 43  1  0
 18 44  1  0
 22 45  1  6
 23 46  1  0
 23 47  1  0
 24 48  1  0
 24 49  1  0
 27 50  1  0
 30 51  1  0
 30 52  1  0
 31 53  1  0
 33 54  1  0
M  END
>  <meeko>  (890) 
{"is_sidechain": [true], "free_energy": -11.21, "intermolecular_energy": 0.0, "internal_energy": -11.21, "cluster_size": 6, "cluster_id": 2, "rank_in_cluster": 1}

>  <_RMSD_MCS_to_ref>  (890) 
1.0318238975501361

$$$$
ligand
     RDKit          3D

 54 58  0  0  0  0  0  0  0  0999 V2000
   24.8540    9.4020    7.6050 C   0  0  0  0  0  0  0  0  0  0  0  0
   25.5230   10.7550    7.4270 C   0  0  0  0  0  0  0  0  0  0  0  0
   24.9700   11.5080    6.2690 C   0  0  0  0  0  0  0  0  0  0  0  0
   25.2190   12.8090    5.8780 C   0  0  0  0  0  0  0  0  0  0  0  0
   24.4760   12.9650    4.7430 N   0  0  0  0  0  0  0  0  0  0  0  0
   24.1980   14.4190    3.9430 S   0  0  0  0  0  6  0  0  0  0  0  0
   22.7700   14.4520    3.6950 O   0  0  0  0  0  0  0  0  0  0  0  0
   25.1550   14.4440    2.8490 O   0  0  0  0  0  0  0  0  0  0  0  0
   24.5680   15.6080    5.0020 O   0  0  0  0  0  0  0  0  0  0  0  0
   25.8110   16.0640    5.2000 C   0  0  0  0  0  0  0  0  0  0  0  0
   26.7490   16.1960    4.2010 N   0  0  0  0  0  0  0  0  0  0  0  0
   27.9400   16.6400    4.6330 N   0  0  0  0  0  0  0  0  0  0  0  0
   27.7640   16.7840    5.9460 C   0  0  0  0  0  0  0  0  0  0  0  0
   26.4560   16.4430    6.3620 C   0  0  0  0  0  0  0  0  0  0  0  0
   25.8690   16.4440    7.6900 C   0  0  0  0  0  0  0  0  0  0  0  0
   24.6330   15.7880    7.9020 C   0  0  0  0  0  0  0  0  0  0  0  0
   24.0380   15.7620    9.1670 C   0  0  0  0  0  0  0  0  0  0  0  0
   24.7080   16.3940   10.1950 C   0  0  0  0  0  0  0  0  0  0  0  0
   25.9280   17.0420   10.0150 C   0  0  0  0  0  0  0  0  0  0  0  0
   26.5230   17.0750    8.7630 C   0  0  0  0  0  0  0  0  0  0  0  0
   26.3870   17.6370   11.3050 C   0  0  0  0  0  0  0  0  0  0  0  0
   25.3650   17.1880   12.2430 N   0  0  0  0  0  0  0  0  0  0  0  0
   25.2220   17.7230   13.5920 C   0  0  1  0  0  0  0  0  0  0  0  0
   26.1610   17.0510   14.5880 C   0  0  0  0  0  0  0  0  0  0  0  0
   25.8910   17.5970   15.9830 C   0  0  0  0  0  0  0  0  0  0  0  0
   26.0190   19.1030   16.0130 C   0  0  0  0  0  0  0  0  0  0  0  0
   26.4720   19.7030   16.9820 O   0  0  0  0  0  0  0  0  0  0  0  0
   25.5820   19.7780   14.9020 N   0  0  0  0  0  0  0  0  0  0  0  0
   25.4490   19.2440   13.6390 C   0  0  0  0  0  0  0  0  0  0  0  0
   25.5220   19.9680   12.6490 O   0  0  0  0  0  0  0  0  0  0  0  0
   24.3240   16.5270   11.6050 C   0  0  0  0  0  0  0  0  0  0  0  0
   23.2860   16.1230   12.0880 O   0  0  0  0  0  0  0  0  0  0  0  0
   23.7600   11.8340    4.5200 C   0  0  0  0  0  0  0  0  0  0  0  0
   24.0580   10.9170    5.4170 N   0  0  0  0  0  0  0  0  0  0  0  0
   24.7464    9.1845    8.6779 H   0  0  0  0  0  0  0  0  0  0  0  0
   23.8606    9.4192    7.1330 H   0  0  0  0  0  0  0  0  0  0  0  0
   25.4708    8.6230    7.1330 H   0  0  0  0  0  0  0  0  0  0  0  0
   25.3706   11.3484    8.3406 H   0  0  0  0  0  0  0  0  0  0  0  0
   26.5922   10.5803    7.2364 H   0  0  0  0  0  0  0  0  0  0  0  0
   25.8674   13.5499    6.3686 H   0  0  0  0  0  0  0  0  0  0  0  0
   26.5550   15.9747    3.2139 H   0  0  0  0  0  0  0  0  0  0  0  0
   28.5509   17.1306    6.6321 H   0  0  0  0  0  0  0  0  0  0  0  0
   24.1325   15.2907    7.0581 H   0  0  0  0  0  0  0  0  0  0  0  0
   23.0749   15.2582    9.3361 H   0  0  0  0  0  0  0  0  0  0  0  0
   27.4864   17.5841    8.6123 H   0  0  0  0  0  0  0  0  0  0  0  0
   27.3798   17.2564   11.5870 H   0  0  0  0  0  0  0  0  0  0  0  0
   26.4970   18.7309   11.2680 H   0  0  0  0  0  0  0  0  0  0  0  0
   24.1838   17.5048   13.8829 H   0  0  0  0  0  0  0  0  0  0  0  0
   25.9891   15.9645   14.5793 H   0  0  0  0  0  0  0  0  0  0  0  0
   27.2043   17.2579   14.3074 H   0  0  0  0  0  0  0  0  0  0  0  0
   24.8716   17.3171   16.2871 H   0  0  0  0  0  0  0  0  0  0  0  0
   26.6322   17.1698   16.6745 H   0  0  0  0  0  0  0  0  0  0  0  0
   25.3316   20.7698   15.0223 H   0  0  0  0  0  0  0  0  0  0  0  0
   23.0332   11.7018    3.7050 H   0  0  0  0  0  0  0  0  0  0  0  0
  1  2  1  0
  2  3  1  0
  3  4  2  0
  4  5  1  0
  5  6  1  0
  6  7  2  0
  6  8  2  0
  6  9  1  0
  9 10  1  0
 10 11  1  0
 11 12  1  0
 12 13  2  0
 13 14  1  0
 14 15  1  0
 15 16  2  0
 16 17  1  0
 17 18  2  0
 18 19  1  0
 19 20  2  0
 19 21  1  0
 21 22  1  0
 22 23  1  0
 23 24  1  0
 24 25  1  0
 25 26  1  0
 26 27  2  0
 26 28  1  0
 28 29  1  0
 29 30  2  0
 22 31  1  0
 31 32  2  0
  5 33  1  0
 33 34  2  0
 34  3  1  0
 14 10  2  0
 20 15  1  0
 29 23  1  0
 31 18  1  0
  1 35  1  0
  1 36  1  0
  1 37  1  0
  2 38  1  0
  2 39  1  0
  4 40  1  0
 11 41  1  0
 13 42  1  0
 16 43  1  0
 17 44  1  0
 20 45  1  0
 21 46  1  0
 21 47  1  0
 23 48  1  1
 24 49  1  0
 24 50  1  0
 25 51  1  0
 25 52  1  0
 28 53  1  0
 33 54  1  0
M  END
>  <meeko>  (891) 
{"is_sidechain": [true], "free_energy": -11.21, "intermolecular_energy": 0.0, "internal_energy": -11.21, "cluster_size": 11, "cluster_id": 1, "rank_in_cluster": 1}

>  <_RMSD_MCS_to_ref>  (891) 
1.289162001715326

$$$$
ligand
     RDKit          3D

 60 65  0  0  0  0  0  0  0  0999 V2000
   24.8710    9.6160    7.7820 C   0  0  0  0  0  0  0  0  0  0  0  0
   25.4240   10.9650    7.3490 C   0  0  0  0  0  0  0  0  0  0  0  0
   24.7830   11.4600    6.1000 C   0  0  0  0  0  0  0  0  0  0  0  0
   24.6570   12.7580    5.6460 C   0  0  0  0  0  0  0  0  0  0  0  0
   23.9940   12.6330    4.4580 N   0  0  0  0  0  0  0  0  0  0  0  0
   23.5850   13.9040    3.4300 S   0  0  0  0  0  6  0  0  0  0  0  0
   23.9430   13.4000    2.1150 O   0  0  0  0  0  0  0  0  0  0  0  0
   22.2090   14.2500    3.7330 O   0  0  0  0  0  0  0  0  0  0  0  0
   24.5600   15.1700    3.7410 O   0  0  0  0  0  0  0  0  0  0  0  0
   25.4560   15.1120    4.7760 C   0  0  0  0  0  0  0  0  0  0  0  0
   26.7420   14.7260    4.4810 C   0  0  0  0  0  0  0  0  0  0  0  0
   27.6670   14.6260    5.5000 C   0  0  0  0  0  0  0  0  0  0  0  0
   28.9170   14.2420    5.1760 N   0  0  0  0  0  0  0  0  0  0  0  0
   29.8080   14.1450    6.1860 C   0  0  0  0  0  0  0  0  0  0  0  0
   29.4660   14.4220    7.4890 C   0  0  0  0  0  0  0  0  0  0  0  0
   28.2190   14.8080    7.8310 N   0  0  0  0  0  0  0  0  0  0  0  0
   27.2960   14.9180    6.8330 C   0  0  0  0  0  0  0  0  0  0  0  0
   25.9560   15.2940    7.0290 C   0  0  0  0  0  0  0  0  0  0  0  0
   25.4000   15.6510    8.3550 C   0  0  0  0  0  0  0  0  0  0  0  0
   24.1910   15.0830    8.8370 C   0  0  0  0  0  0  0  0  0  0  0  0
   23.6900   15.3830   10.1100 C   0  0  0  0  0  0  0  0  0  0  0  0
   24.4270   16.2440   10.8960 C   0  0  0  0  0  0  0  0  0  0  0  0
   25.6150   16.8170   10.4620 C   0  0  0  0  0  0  0  0  0  0  0  0
   26.1020   16.5410    9.1960 C   0  0  0  0  0  0  0  0  0  0  0  0
   26.1830   17.6900   11.5280 C   0  0  0  0  0  0  0  0  0  0  0  0
   25.2560   17.4860   12.6330 N   0  0  0  0  0  0  0  0  0  0  0  0
   25.3170   18.3100   13.8340 C   0  0  2  0  0  0  0  0  0  0  0  0
   25.9820   19.6680   13.6140 C   0  0  0  0  0  0  0  0  0  0  0  0
   25.9370   20.4660   14.9080 C   0  0  0  0  0  0  0  0  0  0  0  0
   26.5920   19.7110   16.0410 C   0  0  0  0  0  0  0  0  0  0  0  0
   27.0410   20.2780   17.0330 O   0  0  0  0  0  0  0  0  0  0  0  0
   26.5860   18.3410   15.9530 N   0  0  0  0  0  0  0  0  0  0  0  0
   25.9900   17.5570   14.9910 C   0  0  0  0  0  0  0  0  0  0  0  0
   25.9270   16.3370   15.1390 O   0  0  0  0  0  0  0  0  0  0  0  0
   24.1640   16.7170   12.2600 C   0  0  0  0  0  0  0  0  0  0  0  0
   23.1580   16.4690   12.8960 O   0  0  0  0  0  0  0  0  0  0  0  0
   25.0360   15.3710    6.0190 N   0  0  0  0  0  0  0  0  0  0  0  0
   23.7520   11.3200    4.2150 C   0  0  0  0  0  0  0  0  0  0  0  0
   24.2070   10.5760    5.2060 N   0  0  0  0  0  0  0  0  0  0  0  0
   24.8497    9.5640    8.8806 H   0  0  0  0  0  0  0  0  0  0  0  0
   23.8507    9.4948    7.3893 H   0  0  0  0  0  0  0  0  0  0  0  0
   25.5127    8.8135    7.3893 H   0  0  0  0  0  0  0  0  0  0  0  0
   25.2460   11.6953    8.1521 H   0  0  0  0  0  0  0  0  0  0  0  0
   26.4991   10.8419    7.1513 H   0  0  0  0  0  0  0  0  0  0  0  0
   25.0095   13.6808    6.1298 H   0  0  0  0  0  0  0  0  0  0  0  0
   27.0305   14.4993    3.4440 H   0  0  0  0  0  0  0  0  0  0  0  0
   30.8389   13.8350    5.9597 H   0  0  0  0  0  0  0  0  0  0  0  0
   30.2303   14.3262    8.2743 H   0  0  0  0  0  0  0  0  0  0  0  0
   23.6325   14.3881    8.1926 H   0  0  0  0  0  0  0  0  0  0  0  0
   22.7453   14.9487   10.4691 H   0  0  0  0  0  0  0  0  0  0  0  0
   27.0321   17.0133    8.8469 H   0  0  0  0  0  0  0  0  0  0  0  0
   27.2008   17.3736   11.7999 H   0  0  0  0  0  0  0  0  0  0  0  0
   26.2788   18.7434   11.2260 H   0  0  0  0  0  0  0  0  0  0  0  0
   24.2714   18.5197   14.1037 H   0  0  0  0  0  0  0  0  0  0  0  0
   27.0287   19.5195   13.3102 H   0  0  0  0  0  0  0  0  0  0  0  0
   25.4472   20.2163   12.8245 H   0  0  0  0  0  0  0  0  0  0  0  0
   26.4655   21.4193   14.7598 H   0  0  0  0  0  0  0  0  0  0  0  0
   24.8836   20.6421   15.1711 H   0  0  0  0  0  0  0  0  0  0  0  0
   27.0890   17.8381   16.6980 H   0  0  0  0  0  0  0  0  0  0  0  0
   23.2477   10.9305    3.3184 H   0  0  0  0  0  0  0  0  0  0  0  0
  1  2  1  0
  2  3  1  0
  3  4  2  0
  4  5  1  0
  5  6  1  0
  6  7  2  0
  6  8  2  0
  6  9  1  0
  9 10  1  0
 10 11  2  0
 11 12  1  0
 12 13  2  0
 13 14  1  0
 14 15  2  0
 15 16  1  0
 16 17  2  0
 17 18  1  0
 18 19  1  0
 19 20  2  0
 20 21  1  0
 21 22  2  0
 22 23  1  0
 23 24  2  0
 23 25  1  0
 25 26  1  0
 26 27  1  0
 27 28  1  0
 28 29  1  0
 29 30  1  0
 30 31  2  0
 30 32  1  0
 32 33  1  0
 33 34  2  0
 26 35  1  0
 35 36  2  0
 18 37  2  0
  5 38  1  0
 38 39  2  0
 39  3  1  0
 37 10  1  0
 17 12  1  0
 24 19  1  0
 33 27  1  0
 35 22  1  0
  1 40  1  0
  1 41  1  0
  1 42  1  0
  2 43  1  0
  2 44  1  0
  4 45  1  0
 11 46  1  0
 14 47  1  0
 15 48  1  0
 20 49  1  0
 21 50  1  0
 24 51  1  0
 25 52  1  0
 25 53  1  0
 27 54  1  1
 28 55  1  0
 28 56  1  0
 29 57  1  0
 29 58  1  0
 32 59  1  0
 38 60  1  0
M  END
>  <meeko>  (892) 
{"is_sidechain": [true], "free_energy": -11.21, "intermolecular_energy": 0.0, "internal_energy": -11.21, "cluster_size": 1, "cluster_id": 2, "rank_in_cluster": 1}

>  <_RMSD_MCS_to_ref>  (892) 
1.6891753048533227

$$$$
ligand
     RDKit          3D

 57 61  0  0  0  0  0  0  0  0999 V2000
   24.8540    9.4020    7.6050 C   0  0  0  0  0  0  0  0  0  0  0  0
   25.5230   10.7550    7.4270 C   0  0  0  0  0  0  0  0  0  0  0  0
   26.9990   10.6760    7.6000 C   0  0  0  0  0  0  0  0  0  0  0  0
   27.9150   11.7020    7.7340 C   0  0  0  0  0  0  0  0  0  0  0  0
   29.1080   11.0620    7.9010 N   0  0  0  0  0  0  0  0  0  0  0  0
   30.6140   11.7890    8.0390 S   0  0  0  0  0  6  0  0  0  0  0  0
   30.5970   12.5560    9.2700 O   0  0  0  0  0  0  0  0  0  0  0  0
   31.5510   10.6980    7.8420 O   0  0  0  0  0  0  0  0  0  0  0  0
   30.7510   12.9090    6.6650 C   0  0  0  0  0  0  0  0  0  0  0  0
   31.7020   12.5930    5.6750 C   0  0  0  0  0  0  0  0  0  0  0  0
   31.9320   13.4640    4.6120 C   0  0  0  0  0  0  0  0  0  0  0  0
   31.2340   14.6630    4.5370 C   0  0  0  0  0  0  0  0  0  0  0  0
   30.2980   14.9850    5.5240 C   0  0  0  0  0  0  0  0  0  0  0  0
   30.0310   14.1140    6.5970 C   0  0  0  0  0  0  0  0  0  0  0  0
   29.0150   14.5370    7.5510 C   0  0  0  0  0  0  0  0  0  0  0  0
   29.1670   15.1380    8.7170 N   0  0  0  0  0  0  0  0  0  0  0  0
   27.8800   15.3780    9.1280 C   0  0  0  0  0  0  0  0  0  0  0  0
   27.3840   15.9620   10.3000 C   0  0  0  0  0  0  0  0  0  0  0  0
   25.9880   16.0870   10.4350 C   0  0  0  0  0  0  0  0  0  0  0  0
   25.3770   16.6900   11.6540 C   0  0  0  0  0  0  0  0  0  0  0  0
   24.1630   16.6530   11.8210 O   0  0  0  0  0  0  0  0  0  0  0  0
   26.2340   17.3060   12.5390 N   0  0  0  0  0  0  0  0  0  0  0  0
   25.7220   18.0510   13.6810 C   0  0  1  0  0  0  0  0  0  0  0  0
   25.9390   17.3100   14.9960 C   0  0  0  0  0  0  0  0  0  0  0  0
   25.4190   18.1570   16.1470 C   0  0  0  0  0  0  0  0  0  0  0  0
   26.0630   19.5230   16.1580 C   0  0  0  0  0  0  0  0  0  0  0  0
   26.2970   20.1340   17.1970 O   0  0  0  0  0  0  0  0  0  0  0  0
   26.3510   20.0770   14.9370 N   0  0  0  0  0  0  0  0  0  0  0  0
   26.4420   19.4010   13.7440 C   0  0  0  0  0  0  0  0  0  0  0  0
   27.0550   19.8730   12.7880 O   0  0  0  0  0  0  0  0  0  0  0  0
   25.1220   15.6180    9.4270 C   0  0  0  0  0  0  0  0  0  0  0  0
   25.6090   15.0330    8.2500 C   0  0  0  0  0  0  0  0  0  0  0  0
   26.9910   14.9420    8.1610 C   0  0  0  0  0  0  0  0  0  0  0  0
   27.7200   14.4190    7.1340 O   0  0  0  0  0  0  0  0  0  0  0  0
   28.9190    9.7240    7.7650 C   0  0  0  0  0  0  0  0  0  0  0  0
   27.6370    9.4510    7.6280 N   0  0  0  0  0  0  0  0  0  0  0  0
   24.7464    9.1845    8.6779 H   0  0  0  0  0  0  0  0  0  0  0  0
   23.8606    9.4192    7.1330 H   0  0  0  0  0  0  0  0  0  0  0  0
   25.4708    8.6230    7.1330 H   0  0  0  0  0  0  0  0  0  0  0  0
   25.3038   11.1290    6.4160 H   0  0  0  0  0  0  0  0  0  0  0  0
   25.1271   11.4330    8.1975 H   0  0  0  0  0  0  0  0  0  0  0  0
   27.7257   12.7853    7.7112 H   0  0  0  0  0  0  0  0  0  0  0  0
   32.2672   11.6517    5.7416 H   0  0  0  0  0  0  0  0  0  0  0  0
   32.6645   13.2030    3.8340 H   0  0  0  0  0  0  0  0  0  0  0  0
   31.4174   15.3568    3.7034 H   0  0  0  0  0  0  0  0  0  0  0  0
   29.7577   15.9411    5.4607 H   0  0  0  0  0  0  0  0  0  0  0  0
   28.0638   16.3123   11.0907 H   0  0  0  0  0  0  0  0  0  0  0  0
   27.2511   17.2389   12.3911 H   0  0  0  0  0  0  0  0  0  0  0  0
   24.6380   18.1812   13.5467 H   0  0  0  0  0  0  0  0  0  0  0  0
   25.3974   16.3529   14.9712 H   0  0  0  0  0  0  0  0  0  0  0  0
   27.0133   17.1199   15.1368 H   0  0  0  0  0  0  0  0  0  0  0  0
   24.3304   18.2749   16.0418 H   0  0  0  0  0  0  0  0  0  0  0  0
   25.6661   17.6492   17.0909 H   0  0  0  0  0  0  0  0  0  0  0  0
   26.5142   21.0937   14.9118 H   0  0  0  0  0  0  0  0  0  0  0  0
   24.0352   15.7135    9.5676 H   0  0  0  0  0  0  0  0  0  0  0  0
   24.9427   14.6715    7.4529 H   0  0  0  0  0  0  0  0  0  0  0  0
   29.7232    8.9734    7.7687 H   0  0  0  0  0  0  0  0  0  0  0  0
  1  2  1  0
  2  3  1  0
  3  4  2  0
  4  5  1  0
  5  6  1  0
  6  7  2  0
  6  8  2  0
  6  9  1  0
  9 10  2  0
 10 11  1  0
 11 12  2  0
 12 13  1  0
 13 14  2  0
 14 15  1  0
 15 16  2  0
 16 17  1  0
 17 18  2  0
 18 19  1  0
 19 20  1  0
 20 21  2  0
 20 22  1  0
 22 23  1  0
 23 24  1  0
 24 25  1  0
 25 26  1  0
 26 27  2  0
 26 28  1  0
 28 29  1  0
 29 30  2  0
 19 31  2  0
 31 32  1  0
 32 33  2  0
 33 34  1  0
  5 35  1  0
 35 36  2  0
 36  3  1  0
 14  9  1  0
 34 15  1  0
 33 17  1  0
 29 23  1  0
  1 37  1  0
  1 38  1  0
  1 39  1  0
  2 40  1  0
  2 41  1  0
  4 42  1  0
 10 43  1  0
 11 44  1  0
 12 45  1  0
 13 46  1  0
 18 47  1  0
 22 48  1  0
 23 49  1  6
 24 50  1  0
 24 51  1  0
 25 52  1  0
 25 53  1  0
 28 54  1  0
 31 55  1  0
 32 56  1  0
 35 57  1  0
M  END
>  <meeko>  (893) 
{"is_sidechain": [true], "free_energy": -11.2, "intermolecular_energy": 0.0, "internal_energy": -11.2, "cluster_size": 19, "cluster_id": 1, "rank_in_cluster": 1}

>  <_RMSD_MCS_to_ref>  (893) 
1.4675167990709863

$$$$
ligand
     RDKit          3D

 59 63  0  0  0  0  0  0  0  0999 V2000
   24.8710    9.6160    7.7820 C   0  0  0  0  0  0  0  0  0  0  0  0
   25.4240   10.9650    7.3490 C   0  0  0  0  0  0  0  0  0  0  0  0
   26.7960   10.8540    6.7820 C   0  0  0  0  0  0  0  0  0  0  0  0
   27.9880   10.6060    7.4340 C   0  0  0  0  0  0  0  0  0  0  0  0
   28.9170   10.5740    6.4330 N   0  0  0  0  0  0  0  0  0  0  0  0
   30.5890   10.5490    6.6420 S   0  0  0  0  0  6  0  0  0  0  0  0
   31.1050    9.9730    5.4140 O   0  0  0  0  0  0  0  0  0  0  0  0
   30.7900    9.9070    7.9270 O   0  0  0  0  0  0  0  0  0  0  0  0
   31.0490   12.1090    6.7410 O   0  0  0  0  0  0  0  0  0  0  0  0
   30.1650   13.1510    6.6300 C   0  0  0  0  0  0  0  0  0  0  0  0
   30.2610   14.2050    5.7250 C   0  0  0  0  0  0  0  0  0  0  0  0
   29.2800   15.2030    5.7070 C   0  0  0  0  0  0  0  0  0  0  0  0
   28.2080   15.1760    6.6070 C   0  0  0  0  0  0  0  0  0  0  0  0
   28.1090   14.1100    7.4990 C   0  0  0  0  0  0  0  0  0  0  0  0
   29.0780   13.1000    7.5050 C   0  0  0  0  0  0  0  0  0  0  0  0
   27.0120   13.8870    8.2900 O   0  0  0  0  0  0  0  0  0  0  0  0
   26.7150   14.8700    9.1900 C   0  0  0  0  0  0  0  0  0  0  0  0
   26.6710   14.4750   10.5320 C   0  0  0  0  0  0  0  0  0  0  0  0
   26.2950   15.3840   11.5220 C   0  0  0  0  0  0  0  0  0  0  0  0
   25.9290   16.6880   11.1740 C   0  0  0  0  0  0  0  0  0  0  0  0
   25.5310   17.6250   12.2600 C   0  0  0  0  0  0  0  0  0  0  0  0
   24.8100   18.5850   12.0130 O   0  0  0  0  0  0  0  0  0  0  0  0
   26.0340   17.3680   13.5150 N   0  0  0  0  0  0  0  0  0  0  0  0
   25.8210   18.3030   14.6120 C   0  0  1  0  0  0  0  0  0  0  0  0
   26.2780   17.7310   15.9490 C   0  0  0  0  0  0  0  0  0  0  0  0
   26.0590   18.7640   17.0440 C   0  0  0  0  0  0  0  0  0  0  0  0
   26.7590   20.0630   16.7210 C   0  0  0  0  0  0  0  0  0  0  0  0
   27.2340   20.7890   17.5880 O   0  0  0  0  0  0  0  0  0  0  0  0
   26.8110   20.4200   15.3970 N   0  0  0  0  0  0  0  0  0  0  0  0
   26.6000   19.5890   14.3240 C   0  0  0  0  0  0  0  0  0  0  0  0
   27.0050   19.8850   13.2000 O   0  0  0  0  0  0  0  0  0  0  0  0
   25.9700   17.0780    9.8300 C   0  0  0  0  0  0  0  0  0  0  0  0
   26.3650   16.1680    8.8310 C   0  0  0  0  0  0  0  0  0  0  0  0
   26.3630   16.6600    7.4380 C   0  0  0  0  0  0  0  0  0  0  0  0
   25.6100   17.5840    7.1320 O   0  0  0  0  0  0  0  0  0  0  0  0
   27.2660   16.2050    6.5120 N   0  0  0  0  0  0  0  0  0  0  0  0
   28.3110   10.8750    5.2550 C   0  0  0  0  0  0  0  0  0  0  0  0
   27.0140   11.0260    5.4300 N   0  0  0  0  0  0  0  0  0  0  0  0
   24.8497    9.5640    8.8806 H   0  0  0  0  0  0  0  0  0  0  0  0
   23.8507    9.4948    7.3893 H   0  0  0  0  0  0  0  0  0  0  0  0
   25.5127    8.8135    7.3893 H   0  0  0  0  0  0  0  0  0  0  0  0
   24.7582   11.3921    6.5846 H   0  0  0  0  0  0  0  0  0  0  0  0
   25.4772   11.6097    8.2387 H   0  0  0  0  0  0  0  0  0  0  0  0
   28.1518   10.4662    8.5127 H   0  0  0  0  0  0  0  0  0  0  0  0
   31.1077   14.2532    5.0244 H   0  0  0  0  0  0  0  0  0  0  0  0
   29.3523   16.0207    4.9748 H   0  0  0  0  0  0  0  0  0  0  0  0
   28.9823   12.2577    8.2060 H   0  0  0  0  0  0  0  0  0  0  0  0
   26.9340   13.4431   10.8078 H   0  0  0  0  0  0  0  0  0  0  0  0
   26.2865   15.0743   12.5775 H   0  0  0  0  0  0  0  0  0  0  0  0
   26.5682   16.5031   13.6810 H   0  0  0  0  0  0  0  0  0  0  0  0
   24.7417   18.5030   14.6842 H   0  0  0  0  0  0  0  0  0  0  0  0
   25.6974   16.8252   16.1780 H   0  0  0  0  0  0  0  0  0  0  0  0
   27.3468   17.4770   15.8930 H   0  0  0  0  0  0  0  0  0  0  0  0
   24.9804   18.9541   17.1468 H   0  0  0  0  0  0  0  0  0  0  0  0
   26.4757   18.3690   17.9823 H   0  0  0  0  0  0  0  0  0  0  0  0
   27.0290   21.4047   15.1880 H   0  0  0  0  0  0  0  0  0  0  0  0
   25.6910   18.1051    9.5520 H   0  0  0  0  0  0  0  0  0  0  0  0
   27.2476   16.6968    5.6072 H   0  0  0  0  0  0  0  0  0  0  0  0
   28.8302   10.9781    4.2907 H   0  0  0  0  0  0  0  0  0  0  0  0
  1  2  1  0
  2  3  1  0
  3  4  2  0
  4  5  1  0
  5  6  1  0
  6  7  2  0
  6  8  2  0
  6  9  1  0
  9 10  1  0
 10 11  2  0
 11 12  1  0
 12 13  2  0
 13 14  1  0
 14 15  2  0
 14 16  1  0
 16 17  1  0
 17 18  2  0
 18 19  1  0
 19 20  2  0
 20 21  1  0
 21 22  2  0
 21 23  1  0
 23 24  1  0
 24 25  1  0
 25 26  1  0
 26 27  1  0
 27 28  2  0
 27 29  1  0
 29 30  1  0
 30 31  2  0
 20 32  1  0
 32 33  2  0
 33 34  1  0
 34 35  2  0
 34 36  1  0
  5 37  1  0
 37 38  2  0
 38  3  1  0
 15 10  1  0
 33 17  1  0
 36 13  1  0
 30 24  1  0
  1 39  1  0
  1 40  1  0
  1 41  1  0
  2 42  1  0
  2 43  1  0
  4 44  1  0
 11 45  1  0
 12 46  1  0
 15 47  1  0
 18 48  1  0
 19 49  1  0
 23 50  1  0
 24 51  1  1
 25 52  1  0
 25 53  1  0
 26 54  1  0
 26 55  1  0
 29 56  1  0
 32 57  1  0
 36 58  1  0
 37 59  1  0
M  END
>  <meeko>  (894) 
{"is_sidechain": [true], "free_energy": -11.2, "intermolecular_energy": 0.0, "internal_energy": -11.2, "cluster_size": 19, "cluster_id": 1, "rank_in_cluster": 1}

>  <_RMSD_MCS_to_ref>  (894) 
1.2550057990127197

$$$$
ligand
     RDKit          3D

 49 52  0  0  0  0  0  0  0  0999 V2000
   24.8710    9.6160    7.7820 C   0  0  0  0  0  0  0  0  0  0  0  0
   25.4240   10.9650    7.3490 C   0  0  0  0  0  0  0  0  0  0  0  0
   26.7950   11.2070    7.8760 C   0  0  0  0  0  0  0  0  0  0  0  0
   27.1840   11.9290    8.9870 C   0  0  0  0  0  0  0  0  0  0  0  0
   28.5430   11.7930    9.0160 N   0  0  0  0  0  0  0  0  0  0  0  0
   29.5990   12.6610   10.0040 S   0  0  0  0  0  6  0  0  0  0  0  0
   29.2370   12.2670   11.3530 O   0  0  0  0  0  0  0  0  0  0  0  0
   30.9130   12.3940    9.4490 O   0  0  0  0  0  0  0  0  0  0  0  0
   29.2210   14.2250    9.7780 O   0  0  0  0  0  0  0  0  0  0  0  0
   28.1340   14.6940    9.1340 C   0  0  0  0  0  0  0  0  0  0  0  0
   27.9670   14.5280    7.7350 C   0  0  0  0  0  0  0  0  0  0  0  0
   26.7700   15.1110    7.3870 C   0  0  0  0  0  0  0  0  0  0  0  0
   26.2040   15.6220    8.5270 N   0  0  0  0  0  0  0  0  0  0  0  0
   24.9870   16.2980    8.6280 C   0  0  0  0  0  0  0  0  0  0  0  0
   24.5420   16.7420    9.7660 N   0  0  0  0  0  0  0  0  0  0  0  0
   25.3430   16.5030   10.8790 C   0  0  0  0  0  0  0  0  0  0  0  0
   24.8560   16.9940   12.2250 C   0  0  0  0  0  0  0  0  0  0  0  0
   23.7100   16.8440   12.6320 O   0  0  0  0  0  0  0  0  0  0  0  0
   25.8360   17.6430   12.9350 N   0  0  0  0  0  0  0  0  0  0  0  0
   25.5660   18.3470   14.1740 C   0  0  1  0  0  0  0  0  0  0  0  0
   26.3730   17.7840   15.3390 C   0  0  0  0  0  0  0  0  0  0  0  0
   26.0620   18.5730   16.6020 C   0  0  0  0  0  0  0  0  0  0  0  0
   26.3160   20.0480   16.4030 C   0  0  0  0  0  0  0  0  0  0  0  0
   26.7150   20.7750   17.3070 O   0  0  0  0  0  0  0  0  0  0  0  0
   26.0480   20.5550   15.1560 N   0  0  0  0  0  0  0  0  0  0  0  0
   25.9090   19.8300   13.9970 C   0  0  0  0  0  0  0  0  0  0  0  0
   26.0390   20.3680   12.8990 O   0  0  0  0  0  0  0  0  0  0  0  0
   26.5280   15.8570   10.8540 C   0  0  0  0  0  0  0  0  0  0  0  0
   27.0270   15.3720    9.6140 C   0  0  0  0  0  0  0  0  0  0  0  0
   28.9410   11.0920    7.9240 C   0  0  0  0  0  0  0  0  0  0  0  0
   27.8990   10.7000    7.2210 N   0  0  0  0  0  0  0  0  0  0  0  0
   24.8497    9.5640    8.8806 H   0  0  0  0  0  0  0  0  0  0  0  0
   23.8507    9.4948    7.3893 H   0  0  0  0  0  0  0  0  0  0  0  0
   25.5127    8.8135    7.3893 H   0  0  0  0  0  0  0  0  0  0  0  0
   25.4561   10.9983    6.2500 H   0  0  0  0  0  0  0  0  0  0  0  0
   24.7640   11.7460    7.7545 H   0  0  0  0  0  0  0  0  0  0  0  0
   26.5455   12.4862    9.6883 H   0  0  0  0  0  0  0  0  0  0  0  0
   28.6673   14.0246    7.0522 H   0  0  0  0  0  0  0  0  0  0  0  0
   26.3430   15.1587    6.3744 H   0  0  0  0  0  0  0  0  0  0  0  0
   24.3879   16.4595    7.7197 H   0  0  0  0  0  0  0  0  0  0  0  0
   26.8004   17.6293   12.5736 H   0  0  0  0  0  0  0  0  0  0  0  0
   24.4989   18.2184   14.4078 H   0  0  0  0  0  0  0  0  0  0  0  0
   26.1071   16.7277   15.4922 H   0  0  0  0  0  0  0  0  0  0  0  0
   27.4465   17.8638   15.1128 H   0  0  0  0  0  0  0  0  0  0  0  0
   25.0048   18.4238   16.8666 H   0  0  0  0  0  0  0  0  0  0  0  0
   26.7190   18.2128   17.4074 H   0  0  0  0  0  0  0  0  0  0  0  0
   25.9408   21.5767   15.0819 H   0  0  0  0  0  0  0  0  0  0  0  0
   27.1005   15.7076   11.7813 H   0  0  0  0  0  0  0  0  0  0  0  0
   29.9884   10.8808    7.6627 H   0  0  0  0  0  0  0  0  0  0  0  0
  1  2  1  0
  2  3  1  0
  3  4  2  0
  4  5  1  0
  5  6  1  0
  6  7  2  0
  6  8  2  0
  6  9  1  0
  9 10  1  0
 10 11  1  0
 11 12  2  0
 12 13  1  0
 13 14  1  0
 14 15  2  0
 15 16  1  0
 16 17  1  0
 17 18  2  0
 17 19  1  0
 19 20  1  0
 20 21  1  0
 21 22  1  0
 22 23  1  0
 23 24  2  0
 23 25  1  0
 25 26  1  0
 26 27  2  0
 16 28  2  0
 28 29  1  0
  5 30  1  0
 30 31  2  0
 31  3  1  0
 29 10  2  0
 29 13  1  0
 26 20  1  0
  1 32  1  0
  1 33  1  0
  1 34  1  0
  2 35  1  0
  2 36  1  0
  4 37  1  0
 11 38  1  0
 12 39  1  0
 14 40  1  0
 19 41  1  0
 20 42  1  1
 21 43  1  0
 21 44  1  0
 22 45  1  0
 22 46  1  0
 25 47  1  0
 28 48  1  0
 30 49  1  0
M  END
>  <meeko>  (895) 
{"is_sidechain": [true], "free_energy": -11.2, "intermolecular_energy": 0.0, "internal_energy": -11.2, "cluster_size": 9, "cluster_id": 1, "rank_in_cluster": 1}

>  <_RMSD_MCS_to_ref>  (895) 
0.8879818566715071

$$$$
ligand
     RDKit          3D

 55 59  0  0  0  0  0  0  0  0999 V2000
   24.8540    9.4020    7.6050 C   0  0  0  0  0  0  0  0  0  0  0  0
   25.5230   10.7550    7.4270 C   0  0  0  0  0  0  0  0  0  0  0  0
   26.9610   10.6270    7.0630 C   0  0  0  0  0  0  0  0  0  0  0  0
   28.0750   11.0110    7.7830 C   0  0  0  0  0  0  0  0  0  0  0  0
   29.1260   10.6440    6.9920 N   0  0  0  0  0  0  0  0  0  0  0  0
   30.7440   11.0790    7.2180 S   0  0  0  0  0  6  0  0  0  0  0  0
   31.4060   10.6170    6.0120 O   0  0  0  0  0  0  0  0  0  0  0  0
   31.1020   10.5440    8.5190 O   0  0  0  0  0  0  0  0  0  0  0  0
   30.8300   12.7140    7.2490 O   0  0  0  0  0  0  0  0  0  0  0  0
   29.6800   13.4480    7.1250 C   0  0  0  0  0  0  0  0  0  0  0  0
   29.1750   13.6480    5.8420 C   0  0  0  0  0  0  0  0  0  0  0  0
   28.0000   14.3780    5.6460 C   0  0  0  0  0  0  0  0  0  0  0  0
   27.3700   14.9070    6.7780 C   0  0  0  0  0  0  0  0  0  0  0  0
   26.2190   15.6520    6.8820 N   0  0  0  0  0  0  0  0  0  0  0  0
   25.9600   15.9750    8.1940 C   0  0  0  0  0  0  0  0  0  0  0  0
   24.9170   16.7040    8.7520 C   0  0  0  0  0  0  0  0  0  0  0  0
   24.8860   16.8840   10.0900 N   0  0  0  0  0  0  0  0  0  0  0  0
   25.8810   16.3430   10.8490 C   0  0  0  0  0  0  0  0  0  0  0  0
   25.7750   16.5790   12.3260 C   0  0  0  0  0  0  0  0  0  0  0  0
   25.6060   15.6610   13.1210 O   0  0  0  0  0  0  0  0  0  0  0  0
   25.8700   17.9010   12.7010 N   0  0  0  0  0  0  0  0  0  0  0  0
   25.6260   18.3470   14.0590 C   0  0  1  0  0  0  0  0  0  0  0  0
   26.6420   17.7720   15.0400 C   0  0  0  0  0  0  0  0  0  0  0  0
   26.3470   18.2870   16.4390 C   0  0  0  0  0  0  0  0  0  0  0  0
   26.3270   19.7960   16.4750 C   0  0  0  0  0  0  0  0  0  0  0  0
   26.6950   20.4370   17.4560 O   0  0  0  0  0  0  0  0  0  0  0  0
   25.8410   20.4300   15.3600 N   0  0  0  0  0  0  0  0  0  0  0  0
   25.6910   19.8780   14.1110 C   0  0  0  0  0  0  0  0  0  0  0  0
   25.5980   20.5930   13.1150 O   0  0  0  0  0  0  0  0  0  0  0  0
   26.9490   15.6050   10.3530 C   0  0  0  0  0  0  0  0  0  0  0  0
   26.9800   15.4180    8.9630 C   0  0  0  0  0  0  0  0  0  0  0  0
   27.8700   14.7420    8.0690 C   0  0  0  0  0  0  0  0  0  0  0  0
   29.0590   14.0060    8.2460 C   0  0  0  0  0  0  0  0  0  0  0  0
   28.6510   10.1200    5.8330 C   0  0  0  0  0  0  0  0  0  0  0  0
   27.3350   10.0800    5.8500 N   0  0  0  0  0  0  0  0  0  0  0  0
   24.7464    9.1845    8.6779 H   0  0  0  0  0  0  0  0  0  0  0  0
   23.8606    9.4192    7.1330 H   0  0  0  0  0  0  0  0  0  0  0  0
   25.4708    8.6230    7.1330 H   0  0  0  0  0  0  0  0  0  0  0  0
   25.0030   11.3052    6.6289 H   0  0  0  0  0  0  0  0  0  0  0  0
   25.4634   11.2903    8.3861 H   0  0  0  0  0  0  0  0  0  0  0  0
   28.1082   11.5002    8.7677 H   0  0  0  0  0  0  0  0  0  0  0  0
   29.7062   13.2273    4.9755 H   0  0  0  0  0  0  0  0  0  0  0  0
   27.5853   14.5313    4.6388 H   0  0  0  0  0  0  0  0  0  0  0  0
   25.6297   15.9309    6.0846 H   0  0  0  0  0  0  0  0  0  0  0  0
   24.1282   17.1282    8.1133 H   0  0  0  0  0  0  0  0  0  0  0  0
   26.1244   18.6002   11.9888 H   0  0  0  0  0  0  0  0  0  0  0  0
   24.6283   17.9899   14.3540 H   0  0  0  0  0  0  0  0  0  0  0  0
   26.5771   16.6739   15.0328 H   0  0  0  0  0  0  0  0  0  0  0  0
   27.6542   18.0828   14.7420 H   0  0  0  0  0  0  0  0  0  0  0  0
   25.3659   17.9078   16.7609 H   0  0  0  0  0  0  0  0  0  0  0  0
   27.1410   17.9341   17.1135 H   0  0  0  0  0  0  0  0  0  0  0  0
   25.5615   21.4152   15.4698 H   0  0  0  0  0  0  0  0  0  0  0  0
   27.7258   15.1911   11.0127 H   0  0  0  0  0  0  0  0  0  0  0  0
   29.4907   13.8731    9.2490 H   0  0  0  0  0  0  0  0  0  0  0  0
   29.2779    9.7769    4.9968 H   0  0  0  0  0  0  0  0  0  0  0  0
  1  2  1  0
  2  3  1  0
  3  4  2  0
  4  5  1  0
  5  6  1  0
  6  7  2  0
  6  8  2  0
  6  9  1  0
  9 10  1  0
 10 11  2  0
 11 12  1  0
 12 13  2  0
 13 14  1  0
 14 15  1  0
 15 16  2  0
 16 17  1  0
 17 18  2  0
 18 19  1  0
 19 20  2  0
 19 21  1  0
 21 22  1  0
 22 23  1  0
 23 24  1  0
 24 25  1  0
 25 26  2  0
 25 27  1  0
 27 28  1  0
 28 29  2  0
 18 30  1  0
 30 31  2  0
 31 32  1  0
 32 33  2  0
  5 34  1  0
 34 35  2  0
 35  3  1  0
 33 10  1  0
 32 13  1  0
 31 15  1  0
 28 22  1  0
  1 36  1  0
  1 37  1  0
  1 38  1  0
  2 39  1  0
  2 40  1  0
  4 41  1  0
 11 42  1  0
 12 43  1  0
 14 44  1  0
 16 45  1  0
 21 46  1  0
 22 47  1  1
 23 48  1  0
 23 49  1  0
 24 50  1  0
 24 51  1  0
 27 52  1  0
 30 53  1  0
 33 54  1  0
 34 55  1  0
M  END
>  <meeko>  (896) 
{"is_sidechain": [true], "free_energy": -11.19, "intermolecular_energy": 0.0, "internal_energy": -11.19, "cluster_size": 12, "cluster_id": 1, "rank_in_cluster": 1}

>  <_RMSD_MCS_to_ref>  (896) 
0.8489963355502638

$$$$
ligand
     RDKit          3D

 64 69  0  0  0  0  0  0  0  0999 V2000
   24.8540    9.4020    7.6050 C   0  0  0  0  0  0  0  0  0  0  0  0
   25.5230   10.7550    7.4270 C   0  0  0  0  0  0  0  0  0  0  0  0
   25.1570   11.3970    6.1360 C   0  0  0  0  0  0  0  0  0  0  0  0
   24.6270   12.6530    5.9090 C   0  0  0  0  0  0  0  0  0  0  0  0
   24.4730   12.7110    4.5530 N   0  0  0  0  0  0  0  0  0  0  0  0
   23.9920   14.0490    3.6690 S   0  0  0  0  0  6  0  0  0  0  0  0
   24.6440   13.9340    2.3760 O   0  0  0  0  0  0  0  0  0  0  0  0
   22.5520   14.1440    3.8280 O   0  0  0  0  0  0  0  0  0  0  0  0
   24.6580   15.4830    4.4180 C   0  0  0  0  0  0  0  0  0  0  0  0
   24.6020   16.7090    3.8000 N   0  0  0  0  0  0  0  0  0  0  0  0
   25.1880   17.5170    4.6550 C   0  0  0  0  0  0  0  0  0  0  0  0
   25.4260   18.8490    4.5460 N   0  0  0  0  0  0  0  0  0  0  0  0
   26.0310   19.4270    5.5440 C   0  0  0  0  0  0  0  0  0  0  0  0
   26.4700   18.7350    6.8130 C   0  0  0  0  0  0  0  0  0  0  0  0
   26.2140   17.4070    6.8790 C   0  0  0  0  0  0  0  0  0  0  0  0
   26.5490   16.5570    7.9410 N   0  0  0  0  0  0  0  0  0  0  0  0
   26.3330   16.8750    9.3070 C   0  0  0  0  0  0  0  0  0  0  0  0
   27.2360   17.6220   10.0710 C   0  0  0  0  0  0  0  0  0  0  0  0
   26.9450   17.9570   11.3980 C   0  0  0  0  0  0  0  0  0  0  0  0
   25.7350   17.5660   11.9860 C   0  0  0  0  0  0  0  0  0  0  0  0
   25.4310   17.9510   13.4250 C   0  0  1  0  0  0  0  0  0  0  0  0
   26.2820   17.1230   14.3940 C   0  0  0  0  0  0  0  0  0  0  0  0
   25.9320   17.4850   15.8270 C   0  0  0  0  0  0  0  0  0  0  0  0
   26.1160   18.9620   16.0730 C   0  0  0  0  0  0  0  0  0  0  0  0
   26.3270   19.4210   17.1910 O   0  0  0  0  0  0  0  0  0  0  0  0
   25.9660   19.7860   14.9860 N   0  0  0  0  0  0  0  0  0  0  0  0
   25.6080   19.4440   13.7020 C   0  0  0  0  0  0  0  0  0  0  0  0
   25.3900   20.3260   12.8740 O   0  0  0  0  0  0  0  0  0  0  0  0
   24.8160   16.8470   11.2090 C   0  0  0  0  0  0  0  0  0  0  0  0
   25.1100   16.5180    9.8820 C   0  0  0  0  0  0  0  0  0  0  0  0
   25.5830   16.7950    5.7770 N   0  0  0  0  0  0  0  0  0  0  0  0
   25.2480   15.4850    5.6270 N   0  0  0  0  0  0  0  0  0  0  0  0
   27.1730   19.5210    7.8840 C   0  0  0  0  0  0  0  0  0  0  0  0
   27.8000   20.8190    7.3880 C   0  0  0  0  0  0  0  0  0  0  0  0
   26.7720   21.6300    6.6180 C   0  0  0  0  0  0  0  0  0  0  0  0
   26.3590   20.9010    5.3530 C   0  0  0  0  0  0  0  0  0  0  0  0
   24.9450   11.5640    4.0020 C   0  0  0  0  0  0  0  0  0  0  0  0
   25.3460   10.7320    4.9400 N   0  0  0  0  0  0  0  0  0  0  0  0
   24.7464    9.1845    8.6779 H   0  0  0  0  0  0  0  0  0  0  0  0
   23.8606    9.4192    7.1330 H   0  0  0  0  0  0  0  0  0  0  0  0
   25.4708    8.6230    7.1330 H   0  0  0  0  0  0  0  0  0  0  0  0
   25.2132   11.4146    8.2510 H   0  0  0  0  0  0  0  0  0  0  0  0
   26.6115   10.5965    7.4288 H   0  0  0  0  0  0  0  0  0  0  0  0
   24.3846   13.4285    6.6506 H   0  0  0  0  0  0  0  0  0  0  0  0
   26.9774   15.6475    7.7171 H   0  0  0  0  0  0  0  0  0  0  0  0
   28.1858   17.9498    9.6233 H   0  0  0  0  0  0  0  0  0  0  0  0
   27.6742   18.5336   11.9860 H   0  0  0  0  0  0  0  0  0  0  0  0
   24.3664   17.7272   13.5876 H   0  0  0  0  0  0  0  0  0  0  0  0
   26.0856   16.0533   14.2295 H   0  0  0  0  0  0  0  0  0  0  0  0
   27.3461   17.3370   14.2156 H   0  0  0  0  0  0  0  0  0  0  0  0
   24.8828   17.2164   16.0197 H   0  0  0  0  0  0  0  0  0  0  0  0
   26.6021   16.9317   16.5014 H   0  0  0  0  0  0  0  0  0  0  0  0
   26.1438   20.7868   15.1521 H   0  0  0  0  0  0  0  0  0  0  0  0
   23.8552   16.5389   11.6470 H   0  0  0  0  0  0  0  0  0  0  0  0
   24.3682   15.9704    9.2821 H   0  0  0  0  0  0  0  0  0  0  0  0
   26.4425   19.7672    8.6687 H   0  0  0  0  0  0  0  0  0  0  0  0
   27.9951   18.8909    8.2543 H   0  0  0  0  0  0  0  0  0  0  0  0
   28.1556   21.4043    8.2488 H   0  0  0  0  0  0  0  0  0  0  0  0
   28.6446   20.5821    6.7243 H   0  0  0  0  0  0  0  0  0  0  0  0
   25.8862   21.7864    7.2512 H   0  0  0  0  0  0  0  0  0  0  0  0
   27.2165   22.5976    6.3419 H   0  0  0  0  0  0  0  0  0  0  0  0
   25.4672   21.4001    4.9461 H   0  0  0  0  0  0  0  0  0  0  0  0
   27.2252   20.9403    4.6761 H   0  0  0  0  0  0  0  0  0  0  0  0
   24.9867   11.3583    2.9222 H   0  0  0  0  0  0  0  0  0  0  0  0
  1  2  1  0
  2  3  1  0
  3  4  2  0
  4  5  1  0
  5  6  1  0
  6  7  2  0
  6  8  2  0
  6  9  1  0
  9 10  1  0
 10 11  2  0
 11 12  1  0
 12 13  2  0
 13 14  1  0
 14 15  2  0
 15 16  1  0
 16 17  1  0
 17 18  2  0
 18 19  1  0
 19 20  2  0
 20 21  1  0
 21 22  1  0
 22 23  1  0
 23 24  1  0
 24 25  2  0
 24 26  1  0
 26 27  1  0
 27 28  2  0
 20 29  1  0
 29 30  2  0
 15 31  1  0
 31 32  1  0
 14 33  1  0
 33 34  1  0
 34 35  1  0
 35 36  1  0
  5 37  1  0
 37 38  2  0
 38  3  1  0
 32  9  2  0
 31 11  1  0
 36 13  1  0
 30 17  1  0
 27 21  1  0
  1 39  1  0
  1 40  1  0
  1 41  1  0
  2 42  1  0
  2 43  1  0
  4 44  1  0
 16 45  1  0
 18 46  1  0
 19 47  1  0
 21 48  1  1
 22 49  1  0
 22 50  1  0
 23 51  1  0
 23 52  1  0
 26 53  1  0
 29 54  1  0
 30 55  1  0
 33 56  1  0
 33 57  1  0
 34 58  1  0
 34 59  1  0
 35 60  1  0
 35 61  1  0
 36 62  1  0
 36 63  1  0
 37 64  1  0
M  END
>  <meeko>  (897) 
{"is_sidechain": [true], "free_energy": -11.19, "intermolecular_energy": 0.0, "internal_energy": -11.19, "cluster_size": 20, "cluster_id": 1, "rank_in_cluster": 1}

>  <_RMSD_MCS_to_ref>  (897) 
1.3150076045407486

$$$$
ligand
     RDKit          3D

 55 58  0  0  0  0  0  0  0  0999 V2000
   24.8540    9.4020    7.6050 C   0  0  0  0  0  0  0  0  0  0  0  0
   25.5230   10.7550    7.4270 C   0  0  0  0  0  0  0  0  0  0  0  0
   24.9650   11.5100    6.2720 C   0  0  0  0  0  0  0  0  0  0  0  0
   24.9950   12.8690    6.0260 C   0  0  0  0  0  0  0  0  0  0  0  0
   24.3310   13.0100    4.8420 N   0  0  0  0  0  0  0  0  0  0  0  0
   24.2340   14.4160    3.9270 S   0  0  0  0  0  6  0  0  0  0  0  0
   22.8270   14.5940    3.6210 O   0  0  0  0  0  0  0  0  0  0  0  0
   25.2420   14.2840    2.8930 O   0  0  0  0  0  0  0  0  0  0  0  0
   24.7330   15.6820    5.0600 C   0  0  0  0  0  0  0  0  0  0  0  0
   25.3950   16.8150    4.5850 C   0  0  0  0  0  0  0  0  0  0  0  0
   25.7870   17.8000    5.4880 C   0  0  0  0  0  0  0  0  0  0  0  0
   25.5080   17.6540    6.8500 C   0  0  0  0  0  0  0  0  0  0  0  0
   24.8270   16.5260    7.3410 C   0  0  0  0  0  0  0  0  0  0  0  0
   24.5290   16.3840    8.7760 C   0  0  0  0  0  0  0  0  0  0  0  0
   23.3910   15.6850    9.2130 C   0  0  0  0  0  0  0  0  0  0  0  0
   23.1130   15.5390   10.5750 C   0  0  0  0  0  0  0  0  0  0  0  0
   23.9660   16.0930   11.5270 C   0  0  0  0  0  0  0  0  0  0  0  0
   25.0990   16.8060   11.1180 C   0  0  0  0  0  0  0  0  0  0  0  0
   26.0480   17.4150   12.0910 C   0  0  0  0  0  0  0  0  0  0  0  0
   27.1450   17.8190   11.7210 O   0  0  0  0  0  0  0  0  0  0  0  0
   25.6120   17.5260   13.3940 N   0  0  0  0  0  0  0  0  0  0  0  0
   26.3970   18.2480   14.3860 C   0  0  2  0  0  0  0  0  0  0  0  0
   26.0300   17.8510   15.8130 C   0  0  0  0  0  0  0  0  0  0  0  0
   26.8550   18.6700   16.7940 C   0  0  0  0  0  0  0  0  0  0  0  0
   26.6770   20.1510   16.5590 C   0  0  0  0  0  0  0  0  0  0  0  0
   26.6980   20.9710   17.4710 O   0  0  0  0  0  0  0  0  0  0  0  0
   26.5160   20.5510   15.2560 N   0  0  0  0  0  0  0  0  0  0  0  0
   26.1460   19.7480   14.2070 C   0  0  0  0  0  0  0  0  0  0  0  0
   25.6550   20.2230   13.1820 O   0  0  0  0  0  0  0  0  0  0  0  0
   25.3790   16.9360    9.7490 C   0  0  0  0  0  0  0  0  0  0  0  0
   24.4380   15.5390    6.4210 C   0  0  0  0  0  0  0  0  0  0  0  0
   23.9660   11.7830    4.3870 C   0  0  0  0  0  0  0  0  0  0  0  0
   24.3260   10.8480    5.2420 N   0  0  0  0  0  0  0  0  0  0  0  0
   24.7464    9.1845    8.6779 H   0  0  0  0  0  0  0  0  0  0  0  0
   23.8606    9.4192    7.1330 H   0  0  0  0  0  0  0  0  0  0  0  0
   25.4708    8.6230    7.1330 H   0  0  0  0  0  0  0  0  0  0  0  0
   25.3745   11.3469    8.3422 H   0  0  0  0  0  0  0  0  0  0  0  0
   26.5915   10.5806    7.2322 H   0  0  0  0  0  0  0  0  0  0  0  0
   25.4501   13.6575    6.6434 H   0  0  0  0  0  0  0  0  0  0  0  0
   25.6045   16.9285    3.5111 H   0  0  0  0  0  0  0  0  0  0  0  0
   26.3171   18.6945    5.1289 H   0  0  0  0  0  0  0  0  0  0  0  0
   25.8279   18.4379    7.5523 H   0  0  0  0  0  0  0  0  0  0  0  0
   22.7079   15.2456    8.4712 H   0  0  0  0  0  0  0  0  0  0  0  0
   22.2184   14.9852   10.8960 H   0  0  0  0  0  0  0  0  0  0  0  0
   23.7495   15.9703   12.5985 H   0  0  0  0  0  0  0  0  0  0  0  0
   24.7192   17.0926   13.6698 H   0  0  0  0  0  0  0  0  0  0  0  0
   27.4568   17.9967   14.2319 H   0  0  0  0  0  0  0  0  0  0  0  0
   24.9604   18.0428   15.9836 H   0  0  0  0  0  0  0  0  0  0  0  0
   26.2384   16.7812   15.9616 H   0  0  0  0  0  0  0  0  0  0  0  0
   26.5361   18.4290   17.8188 H   0  0  0  0  0  0  0  0  0  0  0  0
   27.9163   18.4206   16.6476 H   0  0  0  0  0  0  0  0  0  0  0  0
   26.6887   21.5446   15.0466 H   0  0  0  0  0  0  0  0  0  0  0  0
   26.2808   17.4802    9.4318 H   0  0  0  0  0  0  0  0  0  0  0  0
   23.8978   14.6474    6.7721 H   0  0  0  0  0  0  0  0  0  0  0  0
   23.4430   11.5965    3.4374 H   0  0  0  0  0  0  0  0  0  0  0  0
  1  2  1  0
  2  3  1  0
  3  4  2  0
  4  5  1  0
  5  6  1  0
  6  7  2  0
  6  8  2  0
  6  9  1  0
  9 10  2  0
 10 11  1  0
 11 12  2  0
 12 13  1  0
 13 14  1  0
 14 15  2  0
 15 16  1  0
 16 17  2  0
 17 18  1  0
 18 19  1  0
 19 20  2  0
 19 21  1  0
 21 22  1  0
 22 23  1  0
 23 24  1  0
 24 25  1  0
 25 26  2  0
 25 27  1  0
 27 28  1  0
 28 29  2  0
 18 30  2  0
 13 31  2  0
  5 32  1  0
 32 33  2  0
 33  3  1  0
 31  9  1  0
 30 14  1  0
 28 22  1  0
  1 34  1  0
  1 35  1  0
  1 36  1  0
  2 37  1  0
  2 38  1  0
  4 39  1  0
 10 40  1  0
 11 41  1  0
 12 42  1  0
 15 43  1  0
 16 44  1  0
 17 45  1  0
 21 46  1  0
 22 47  1  6
 23 48  1  0
 23 49  1  0
 24 50  1  0
 24 51  1  0
 27 52  1  0
 30 53  1  0
 31 54  1  0
 32 55  1  0
M  END
>  <meeko>  (898) 
{"is_sidechain": [true], "free_energy": -11.19, "intermolecular_energy": 0.0, "internal_energy": -11.19, "cluster_size": 8, "cluster_id": 2, "rank_in_cluster": 1}

>  <_RMSD_MCS_to_ref>  (898) 
0.9020814203212961

$$$$
ligand
     RDKit          3D

 55 59  0  0  0  0  0  0  0  0999 V2000
   24.8710    9.6160    7.7820 C   0  0  0  0  0  0  0  0  0  0  0  0
   25.4240   10.9650    7.3490 C   0  0  0  0  0  0  0  0  0  0  0  0
   24.8460   11.4220    6.0560 C   0  0  0  0  0  0  0  0  0  0  0  0
   24.5740   12.7080    5.6340 C   0  0  0  0  0  0  0  0  0  0  0  0
   24.0910   12.5460    4.3670 N   0  0  0  0  0  0  0  0  0  0  0  0
   23.4960   13.7690    3.3750 S   0  0  0  0  0  6  0  0  0  0  0  0
   23.6320   13.2800    2.0150 O   0  0  0  0  0  0  0  0  0  0  0  0
   22.1820   14.0450    3.9300 O   0  0  0  0  0  0  0  0  0  0  0  0
   24.3980   15.1080    3.5700 O   0  0  0  0  0  0  0  0  0  0  0  0
   25.2860   15.1810    4.6160 C   0  0  0  0  0  0  0  0  0  0  0  0
   26.6210   15.1180    4.2980 C   0  0  0  0  0  0  0  0  0  0  0  0
   27.4810   15.2620    5.3560 C   0  0  0  0  0  0  0  0  0  0  0  0
   27.0680   15.4710    6.6180 N   0  0  0  0  0  0  0  0  0  0  0  0
   25.7380   15.5330    6.8280 C   0  0  0  0  0  0  0  0  0  0  0  0
   25.2680   15.7880    8.2070 C   0  0  0  0  0  0  0  0  0  0  0  0
   24.0900   15.1700    8.7120 C   0  0  0  0  0  0  0  0  0  0  0  0
   23.6300   15.3920   10.0170 C   0  0  0  0  0  0  0  0  0  0  0  0
   24.3680   16.2430   10.8120 C   0  0  0  0  0  0  0  0  0  0  0  0
   25.5200   16.8710   10.3610 C   0  0  0  0  0  0  0  0  0  0  0  0
   25.9750   16.6540    9.0700 C   0  0  0  0  0  0  0  0  0  0  0  0
   26.0810   17.7500   11.4260 C   0  0  0  0  0  0  0  0  0  0  0  0
   25.2070   17.4680   12.5590 N   0  0  0  0  0  0  0  0  0  0  0  0
   25.2570   18.2770   13.7710 C   0  0  2  0  0  0  0  0  0  0  0  0
   25.9240   19.6380   13.5750 C   0  0  0  0  0  0  0  0  0  0  0  0
   25.8640   20.4210   14.8760 C   0  0  0  0  0  0  0  0  0  0  0  0
   26.5080   19.6540   16.0080 C   0  0  0  0  0  0  0  0  0  0  0  0
   26.9560   20.2120   17.0040 O   0  0  0  0  0  0  0  0  0  0  0  0
   26.4950   18.2850   15.9090 N   0  0  0  0  0  0  0  0  0  0  0  0
   25.9210   17.5110   14.9250 C   0  0  0  0  0  0  0  0  0  0  0  0
   25.8730   16.2880   15.0490 O   0  0  0  0  0  0  0  0  0  0  0  0
   24.1360   16.6630   12.1990 C   0  0  0  0  0  0  0  0  0  0  0  0
   23.1670   16.3510   12.8640 O   0  0  0  0  0  0  0  0  0  0  0  0
   24.8140   15.3990    5.8520 N   0  0  0  0  0  0  0  0  0  0  0  0
   23.9920   11.2200    4.0910 C   0  0  0  0  0  0  0  0  0  0  0  0
   24.4920   10.5070    5.0820 N   0  0  0  0  0  0  0  0  0  0  0  0
   24.8497    9.5640    8.8806 H   0  0  0  0  0  0  0  0  0  0  0  0
   23.8507    9.4948    7.3893 H   0  0  0  0  0  0  0  0  0  0  0  0
   25.5127    8.8135    7.3893 H   0  0  0  0  0  0  0  0  0  0  0  0
   25.1894   11.7092    8.1244 H   0  0  0  0  0  0  0  0  0  0  0  0
   26.5101   10.8563    7.2131 H   0  0  0  0  0  0  0  0  0  0  0  0
   24.7140   13.6467    6.1901 H   0  0  0  0  0  0  0  0  0  0  0  0
   26.9747   14.9631    3.2680 H   0  0  0  0  0  0  0  0  0  0  0  0
   28.5623   15.2036    5.1626 H   0  0  0  0  0  0  0  0  0  0  0  0
   23.5210   14.4950    8.0557 H   0  0  0  0  0  0  0  0  0  0  0  0
   22.7168   14.9068   10.3920 H   0  0  0  0  0  0  0  0  0  0  0  0
   26.8876   17.1567    8.7172 H   0  0  0  0  0  0  0  0  0  0  0  0
   27.1241   17.4843   11.6525 H   0  0  0  0  0  0  0  0  0  0  0  0
   26.1094   18.8138   11.1475 H   0  0  0  0  0  0  0  0  0  0  0  0
   24.2084   18.4818   14.0326 H   0  0  0  0  0  0  0  0  0  0  0  0
   26.9743   19.4933   13.2818 H   0  0  0  0  0  0  0  0  0  0  0  0
   25.3976   20.1951   12.7860 H   0  0  0  0  0  0  0  0  0  0  0  0
   26.3928   21.3765   14.7440 H   0  0  0  0  0  0  0  0  0  0  0  0
   24.8076   20.5930   15.1296 H   0  0  0  0  0  0  0  0  0  0  0  0
   26.9737   17.7733   16.6639 H   0  0  0  0  0  0  0  0  0  0  0  0
   23.5569   10.8002    3.1720 H   0  0  0  0  0  0  0  0  0  0  0  0
  1  2  1  0
  2  3  1  0
  3  4  2  0
  4  5  1  0
  5  6  1  0
  6  7  2  0
  6  8  2  0
  6  9  1  0
  9 10  1  0
 10 11  2  0
 11 12  1  0
 12 13  2  0
 13 14  1  0
 14 15  1  0
 15 16  2  0
 16 17  1  0
 17 18  2  0
 18 19  1  0
 19 20  2  0
 19 21  1  0
 21 22  1  0
 22 23  1  0
 23 24  1  0
 24 25  1  0
 25 26  1  0
 26 27  2  0
 26 28  1  0
 28 29  1  0
 29 30  2  0
 22 31  1  0
 31 32  2  0
 14 33  2  0
  5 34  1  0
 34 35  2  0
 35  3  1  0
 33 10  1  0
 20 15  1  0
 29 23  1  0
 31 18  1  0
  1 36  1  0
  1 37  1  0
  1 38  1  0
  2 39  1  0
  2 40  1  0
  4 41  1  0
 11 42  1  0
 12 43  1  0
 16 44  1  0
 17 45  1  0
 20 46  1  0
 21 47  1  0
 21 48  1  0
 23 49  1  1
 24 50  1  0
 24 51  1  0
 25 52  1  0
 25 53  1  0
 28 54  1  0
 34 55  1  0
M  END
>  <meeko>  (899) 
{"is_sidechain": [true], "free_energy": -11.19, "intermolecular_energy": 0.0, "internal_energy": -11.19, "cluster_size": 6, "cluster_id": 2, "rank_in_cluster": 1}

>  <_RMSD_MCS_to_ref>  (899) 
1.7050922493951375

$$$$
ligand
     RDKit          3D

 62 66  0  0  0  0  0  0  0  0999 V2000
   24.8710    9.6170    7.7820 C   0  0  0  0  0  0  0  0  0  0  0  0
   25.4240   10.9640    7.3490 C   0  0  0  0  0  0  0  0  0  0  0  0
   25.0160   11.3190    5.9610 C   0  0  0  0  0  0  0  0  0  0  0  0
   24.4230   12.4780    5.5020 C   0  0  0  0  0  0  0  0  0  0  0  0
   24.2780   12.2750    4.1600 N   0  0  0  0  0  0  0  0  0  0  0  0
   23.3680   13.2250    3.1130 S   0  0  0  0  0  6  0  0  0  0  0  0
   23.5330   12.6400    1.7960 O   0  0  0  0  0  0  0  0  0  0  0  0
   22.0710   13.3730    3.7450 O   0  0  0  0  0  0  0  0  0  0  0  0
   24.2120   14.7840    3.1540 C   0  0  0  0  0  0  0  0  0  0  0  0
   24.0070   15.7120    2.1180 C   0  0  0  0  0  0  0  0  0  0  0  0
   24.6350   16.9600    2.1610 C   0  0  0  0  0  0  0  0  0  0  0  0
   25.4650   17.2440    3.2330 C   0  0  0  0  0  0  0  0  0  0  0  0
   25.6780   16.3110    4.2540 C   0  0  0  0  0  0  0  0  0  0  0  0
   25.0630   15.0690    4.2280 C   0  0  0  0  0  0  0  0  0  0  0  0
   26.5890   16.8640    5.3170 C   0  0  2  0  0  0  0  0  0  0  0  0
   25.9070   17.2080    6.6430 C   0  0  0  0  0  0  0  0  0  0  0  0
   24.7340   17.5790    6.6380 O   0  0  0  0  0  0  0  0  0  0  0  0
   26.6880   17.0160    7.7690 N   0  0  0  0  0  0  0  0  0  0  0  0
   26.3340   17.2430    9.1150 C   0  0  0  0  0  0  0  0  0  0  0  0
   25.3200   16.5630    9.7860 C   0  0  0  0  0  0  0  0  0  0  0  0
   25.0280   16.8590   11.1230 C   0  0  0  0  0  0  0  0  0  0  0  0
   25.7450   17.8420   11.8180 C   0  0  0  0  0  0  0  0  0  0  0  0
   25.4250   18.1240   13.2760 C   0  0  1  0  0  0  0  0  0  0  0  0
   26.2110   17.1720   14.1840 C   0  0  0  0  0  0  0  0  0  0  0  0
   25.8440   17.4230   15.6370 C   0  0  0  0  0  0  0  0  0  0  0  0
   26.0950   18.8600   16.0180 C   0  0  0  0  0  0  0  0  0  0  0  0
   26.3150   19.2040   17.1750 O   0  0  0  0  0  0  0  0  0  0  0  0
   25.9990   19.7850   15.0090 N   0  0  0  0  0  0  0  0  0  0  0  0
   25.6690   19.5750   13.6890 C   0  0  0  0  0  0  0  0  0  0  0  0
   25.5320   20.5380   12.9380 O   0  0  0  0  0  0  0  0  0  0  0  0
   26.7700   18.5160   11.1430 C   0  0  0  0  0  0  0  0  0  0  0  0
   27.0580   18.2210    9.8070 C   0  0  0  0  0  0  0  0  0  0  0  0
   27.1680   18.1100    4.6170 C   0  0  0  0  0  0  0  0  0  0  0  0
   26.1840   18.5270    3.5140 C   0  0  0  0  0  0  0  0  0  0  0  0
   24.7290   11.0320    3.8490 C   0  0  0  0  0  0  0  0  0  0  0  0
   25.1950   10.4270    4.9220 N   0  0  0  0  0  0  0  0  0  0  0  0
   24.8498    9.5653    8.8806 H   0  0  0  0  0  0  0  0  0  0  0  0
   23.8505    9.4962    7.3895 H   0  0  0  0  0  0  0  0  0  0  0  0
   25.5122    8.8140    7.3895 H   0  0  0  0  0  0  0  0  0  0  0  0
   25.0516   11.7376    8.0367 H   0  0  0  0  0  0  0  0  0  0  0  0
   26.5220   10.9023    7.3733 H   0  0  0  0  0  0  0  0  0  0  0  0
   24.1330   13.3643    6.0855 H   0  0  0  0  0  0  0  0  0  0  0  0
   23.3516   15.4556    1.2726 H   0  0  0  0  0  0  0  0  0  0  0  0
   24.4739   17.6991    1.3624 H   0  0  0  0  0  0  0  0  0  0  0  0
   25.2380   14.3316    5.0253 H   0  0  0  0  0  0  0  0  0  0  0  0
   27.3375   16.1265    5.6424 H   0  0  0  0  0  0  0  0  0  0  0  0
   27.6423   16.6652    7.6043 H   0  0  0  0  0  0  0  0  0  0  0  0
   24.7438   15.7869    9.2609 H   0  0  0  0  0  0  0  0  0  0  0  0
   24.2234   16.3115   11.6356 H   0  0  0  0  0  0  0  0  0  0  0  0
   24.3454   17.9497   13.3946 H   0  0  0  0  0  0  0  0  0  0  0  0
   25.9672   16.1322   13.9205 H   0  0  0  0  0  0  0  0  0  0  0  0
   27.2882   17.3474   14.0469 H   0  0  0  0  0  0  0  0  0  0  0  0
   24.7784   17.1930   15.7836 H   0  0  0  0  0  0  0  0  0  0  0  0
   26.4688   16.7781   16.2724 H   0  0  0  0  0  0  0  0  0  0  0  0
   26.1993   20.7603   15.2727 H   0  0  0  0  0  0  0  0  0  0  0  0
   27.3545   19.2852   11.6690 H   0  0  0  0  0  0  0  0  0  0  0  0
   27.8643   18.7647    9.2928 H   0  0  0  0  0  0  0  0  0  0  0  0
   27.2843   18.9276    5.3437 H   0  0  0  0  0  0  0  0  0  0  0  0
   28.1554   17.8858    4.1871 H   0  0  0  0  0  0  0  0  0  0  0  0
   25.4908   19.3034    3.8700 H   0  0  0  0  0  0  0  0  0  0  0  0
   26.6702   18.9645    2.6296 H   0  0  0  0  0  0  0  0  0  0  0  0
   24.7079   10.5919    2.8411 H   0  0  0  0  0  0  0  0  0  0  0  0
  1  2  1  0
  2  3  1  0
  3  4  2  0
  4  5  1  0
  5  6  1  0
  6  7  2  0
  6  8  2  0
  6  9  1  0
  9 10  2  0
 10 11  1  0
 11 12  2  0
 12 13  1  0
 13 14  2  0
 13 15  1  0
 15 16  1  0
 16 17  2  0
 16 18  1  0
 18 19  1  0
 19 20  2  0
 20 21  1  0
 21 22  2  0
 22 23  1  0
 23 24  1  0
 24 25  1  0
 25 26  1  0
 26 27  2  0
 26 28  1  0
 28 29  1  0
 29 30  2  0
 22 31  1  0
 31 32  2  0
 15 33  1  0
 33 34  1  0
  5 35  1  0
 35 36  2  0
 36  3  1  0
 14  9  1  0
 32 19  1  0
 34 12  1  0
 29 23  1  0
  1 37  1  0
  1 38  1  0
  1 39  1  0
  2 40  1  0
  2 41  1  0
  4 42  1  0
 10 43  1  0
 11 44  1  0
 14 45  1  0
 15 46  1  1
 18 47  1  0
 20 48  1  0
 21 49  1  0
 23 50  1  6
 24 51  1  0
 24 52  1  0
 25 53  1  0
 25 54  1  0
 28 55  1  0
 31 56  1  0
 32 57  1  0
 33 58  1  0
 33 59  1  0
 34 60  1  0
 34 61  1  0
 35 62  1  0
M  END
>  <meeko>  (900) 
{"is_sidechain": [true], "free_energy": -11.19, "intermolecular_energy": 0.0, "internal_energy": -11.19, "cluster_size": 19, "cluster_id": 1, "rank_in_cluster": 1}

>  <_RMSD_MCS_to_ref>  (900) 
1.2700744564788318

$$$$
ligand
     RDKit          3D

 49 52  0  0  0  0  0  0  0  0999 V2000
   24.8710    9.6160    7.7820 C   0  0  0  0  0  0  0  0  0  0  0  0
   25.4240   10.9650    7.3490 C   0  0  0  0  0  0  0  0  0  0  0  0
   26.7720   11.2350    7.9190 C   0  0  0  0  0  0  0  0  0  0  0  0
   27.1060   12.0090    9.0120 C   0  0  0  0  0  0  0  0  0  0  0  0
   28.4640   11.9030    9.0950 N   0  0  0  0  0  0  0  0  0  0  0  0
   29.4250   12.6590   10.2470 S   0  0  0  0  0  6  0  0  0  0  0  0
   30.7780   12.3650    9.8050 O   0  0  0  0  0  0  0  0  0  0  0  0
   28.9550   12.1990   11.5400 O   0  0  0  0  0  0  0  0  0  0  0  0
   29.2020   14.2720   10.0950 O   0  0  0  0  0  0  0  0  0  0  0  0
   28.2070   14.8000    9.3020 C   0  0  0  0  0  0  0  0  0  0  0  0
   28.1710   14.5670    7.9750 C   0  0  0  0  0  0  0  0  0  0  0  0
   27.1210   15.1180    7.1330 C   0  0  0  0  0  0  0  0  0  0  0  0
   26.1570   15.8590    7.7030 C   0  0  0  0  0  0  0  0  0  0  0  0
   26.1840   16.0690    9.0800 N   0  0  0  0  0  0  0  0  0  0  0  0
   25.3140   16.7740    9.8620 C   0  0  0  0  0  0  0  0  0  0  0  0
   25.7750   16.6500   11.1590 C   0  0  0  0  0  0  0  0  0  0  0  0
   25.1620   17.2720   12.3360 C   0  0  0  0  0  0  0  0  0  0  0  0
   24.0590   17.8100   12.3000 O   0  0  0  0  0  0  0  0  0  0  0  0
   25.9330   17.2050   13.4750 N   0  0  0  0  0  0  0  0  0  0  0  0
   25.7110   18.1430   14.5620 C   0  0  1  0  0  0  0  0  0  0  0  0
   26.3220   17.6350   15.8610 C   0  0  0  0  0  0  0  0  0  0  0  0
   26.0860   18.6510   16.9660 C   0  0  0  0  0  0  0  0  0  0  0  0
   26.6380   20.0060   16.5920 C   0  0  0  0  0  0  0  0  0  0  0  0
   27.0590   20.7970   17.4320 O   0  0  0  0  0  0  0  0  0  0  0  0
   26.6000   20.3380   15.2610 N   0  0  0  0  0  0  0  0  0  0  0  0
   26.3200   19.5080   14.2000 C   0  0  0  0  0  0  0  0  0  0  0  0
   26.5130   19.8900   13.0470 O   0  0  0  0  0  0  0  0  0  0  0  0
   26.9240   15.8640   11.1860 N   0  0  0  0  0  0  0  0  0  0  0  0
   27.1650   15.5530    9.9250 C   0  0  0  0  0  0  0  0  0  0  0  0
   28.9210   11.1590    8.0580 C   0  0  0  0  0  0  0  0  0  0  0  0
   27.9100   10.6910    7.3480 N   0  0  0  0  0  0  0  0  0  0  0  0
   24.8497    9.5640    8.8806 H   0  0  0  0  0  0  0  0  0  0  0  0
   23.8507    9.4948    7.3893 H   0  0  0  0  0  0  0  0  0  0  0  0
   25.5127    8.8135    7.3893 H   0  0  0  0  0  0  0  0  0  0  0  0
   25.4947   10.9820    6.2514 H   0  0  0  0  0  0  0  0  0  0  0  0
   24.7407   11.7426    7.7210 H   0  0  0  0  0  0  0  0  0  0  0  0
   26.4316   12.5806    9.6666 H   0  0  0  0  0  0  0  0  0  0  0  0
   28.9547   13.9451    7.5178 H   0  0  0  0  0  0  0  0  0  0  0  0
   27.1166   14.9312    6.0490 H   0  0  0  0  0  0  0  0  0  0  0  0
   25.3550   16.2953    7.0895 H   0  0  0  0  0  0  0  0  0  0  0  0
   24.4252   17.3288    9.5269 H   0  0  0  0  0  0  0  0  0  0  0  0
   26.6685   16.4885   13.5565 H   0  0  0  0  0  0  0  0  0  0  0  0
   24.6262   18.2477   14.7110 H   0  0  0  0  0  0  0  0  0  0  0  0
   25.8535   16.6787   16.1367 H   0  0  0  0  0  0  0  0  0  0  0  0
   27.4036   17.4888   15.7237 H   0  0  0  0  0  0  0  0  0  0  0  0
   25.0044   18.7415   17.1446 H   0  0  0  0  0  0  0  0  0  0  0  0
   26.6023   18.3039   17.8731 H   0  0  0  0  0  0  0  0  0  0  0  0
   26.8044   21.3207   15.0299 H   0  0  0  0  0  0  0  0  0  0  0  0
   29.9826   10.9716    7.8389 H   0  0  0  0  0  0  0  0  0  0  0  0
  1  2  1  0
  2  3  1  0
  3  4  2  0
  4  5  1  0
  5  6  1  0
  6  7  2  0
  6  8  2  0
  6  9  1  0
  9 10  1  0
 10 11  2  0
 11 12  1  0
 12 13  2  0
 13 14  1  0
 14 15  1  0
 15 16  2  0
 16 17  1  0
 17 18  2  0
 17 19  1  0
 19 20  1  0
 20 21  1  0
 21 22  1  0
 22 23  1  0
 23 24  2  0
 23 25  1  0
 25 26  1  0
 26 27  2  0
 16 28  1  0
 28 29  2  0
  5 30  1  0
 30 31  2  0
 31  3  1  0
 29 10  1  0
 29 14  1  0
 26 20  1  0
  1 32  1  0
  1 33  1  0
  1 34  1  0
  2 35  1  0
  2 36  1  0
  4 37  1  0
 11 38  1  0
 12 39  1  0
 13 40  1  0
 15 41  1  0
 19 42  1  0
 20 43  1  1
 21 44  1  0
 21 45  1  0
 22 46  1  0
 22 47  1  0
 25 48  1  0
 30 49  1  0
M  END
>  <meeko>  (901) 
{"is_sidechain": [true], "free_energy": -11.19, "intermolecular_energy": 0.0, "internal_energy": -11.19, "cluster_size": 17, "cluster_id": 1, "rank_in_cluster": 1}

>  <_RMSD_MCS_to_ref>  (901) 
1.0529943547384817

$$$$
ligand
     RDKit          3D

 55 59  0  0  0  0  0  0  0  0999 V2000
   24.8540    9.4020    7.6050 C   0  0  0  0  0  0  0  0  0  0  0  0
   25.5230   10.7550    7.4270 C   0  0  0  0  0  0  0  0  0  0  0  0
   25.3970   11.2630    6.0340 C   0  0  0  0  0  0  0  0  0  0  0  0
   26.2140   12.1470    5.3560 C   0  0  0  0  0  0  0  0  0  0  0  0
   25.6470   12.2390    4.1180 N   0  0  0  0  0  0  0  0  0  0  0  0
   26.1900   13.1590    2.8160 S   0  0  0  0  0  6  0  0  0  0  0  0
   27.5600   12.7130    2.6320 O   0  0  0  0  0  0  0  0  0  0  0  0
   25.2130   12.9810    1.7560 O   0  0  0  0  0  0  0  0  0  0  0  0
   26.2500   14.7270    3.2430 O   0  0  0  0  0  0  0  0  0  0  0  0
   25.9140   15.0860    4.5180 C   0  0  0  0  0  0  0  0  0  0  0  0
   26.8800   15.6620    5.3220 C   0  0  0  0  0  0  0  0  0  0  0  0
   26.6490   15.9990    6.6160 N   0  0  0  0  0  0  0  0  0  0  0  0
   25.4090   15.7220    7.1050 C   0  0  0  0  0  0  0  0  0  0  0  0
   25.1660   16.0880    8.5170 C   0  0  0  0  0  0  0  0  0  0  0  0
   23.9780   15.7020    9.1970 C   0  0  0  0  0  0  0  0  0  0  0  0
   23.7440   16.0500   10.5340 C   0  0  0  0  0  0  0  0  0  0  0  0
   24.7160   16.7850   11.1790 C   0  0  0  0  0  0  0  0  0  0  0  0
   25.8960   17.1730   10.5560 C   0  0  0  0  0  0  0  0  0  0  0  0
   26.1330   16.8300    9.2340 C   0  0  0  0  0  0  0  0  0  0  0  0
   26.7590   17.9240   11.5150 C   0  0  0  0  0  0  0  0  0  0  0  0
   25.9130   18.0120   12.6990 N   0  0  0  0  0  0  0  0  0  0  0  0
   26.4000   18.4410   14.0050 C   0  0  2  0  0  0  0  0  0  0  0  0
   26.0530   17.4490   15.1110 C   0  0  0  0  0  0  0  0  0  0  0  0
   26.6710   17.9170   16.4210 C   0  0  0  0  0  0  0  0  0  0  0  0
   26.2260   19.3210   16.7610 C   0  0  0  0  0  0  0  0  0  0  0  0
   26.0240   19.6830   17.9160 O   0  0  0  0  0  0  0  0  0  0  0  0
   26.0750   20.1880   15.7100 N   0  0  0  0  0  0  0  0  0  0  0  0
   25.8700   19.8310   14.3960 C   0  0  0  0  0  0  0  0  0  0  0  0
   25.2930   20.5980   13.6290 O   0  0  0  0  0  0  0  0  0  0  0  0
   24.7430   17.2800   12.5590 C   0  0  0  0  0  0  0  0  0  0  0  0
   23.8840   17.0690   13.3940 O   0  0  0  0  0  0  0  0  0  0  0  0
   24.4540   15.1340    6.2750 C   0  0  0  0  0  0  0  0  0  0  0  0
   24.6840   14.7980    4.9770 N   0  0  0  0  0  0  0  0  0  0  0  0
   24.5310   11.4670    4.0760 C   0  0  0  0  0  0  0  0  0  0  0  0
   24.3540   10.8500    5.2250 N   0  0  0  0  0  0  0  0  0  0  0  0
   24.7464    9.1845    8.6779 H   0  0  0  0  0  0  0  0  0  0  0  0
   23.8606    9.4192    7.1330 H   0  0  0  0  0  0  0  0  0  0  0  0
   25.4708    8.6230    7.1330 H   0  0  0  0  0  0  0  0  0  0  0  0
   25.0524   11.4761    8.1114 H   0  0  0  0  0  0  0  0  0  0  0  0
   26.5938   10.6350    7.6482 H   0  0  0  0  0  0  0  0  0  0  0  0
   27.1139   12.6586    5.7281 H   0  0  0  0  0  0  0  0  0  0  0  0
   27.8756   15.8548    4.8957 H   0  0  0  0  0  0  0  0  0  0  0  0
   23.2211   15.1134    8.6579 H   0  0  0  0  0  0  0  0  0  0  0  0
   22.8202   15.7483   11.0493 H   0  0  0  0  0  0  0  0  0  0  0  0
   27.0700   17.1339    8.7444 H   0  0  0  0  0  0  0  0  0  0  0  0
   27.6870   17.3737   11.7296 H   0  0  0  0  0  0  0  0  0  0  0  0
   27.0860   18.9035   11.1361 H   0  0  0  0  0  0  0  0  0  0  0  0
   27.4943   18.4901   13.9040 H   0  0  0  0  0  0  0  0  0  0  0  0
   24.9602   17.3895   15.2212 H   0  0  0  0  0  0  0  0  0  0  0  0
   26.4487   16.4559   14.8518 H   0  0  0  0  0  0  0  0  0  0  0  0
   26.3612   17.2365   17.2278 H   0  0  0  0  0  0  0  0  0  0  0  0
   27.7656   17.9139   16.3120 H   0  0  0  0  0  0  0  0  0  0  0  0
   26.1187   21.1950   15.9218 H   0  0  0  0  0  0  0  0  0  0  0  0
   23.4577   14.9304    6.6944 H   0  0  0  0  0  0  0  0  0  0  0  0
   23.8676   11.3707    3.2038 H   0  0  0  0  0  0  0  0  0  0  0  0
  1  2  1  0
  2  3  1  0
  3  4  2  0
  4  5  1  0
  5  6  1  0
  6  7  2  0
  6  8  2  0
  6  9  1  0
  9 10  1  0
 10 11  2  0
 11 12  1  0
 12 13  2  0
 13 14  1  0
 14 15  2  0
 15 16  1  0
 16 17  2  0
 17 18  1  0
 18 19  2  0
 18 20  1  0
 20 21  1  0
 21 22  1  0
 22 23  1  0
 23 24  1  0
 24 25  1  0
 25 26  2  0
 25 27  1  0
 27 28  1  0
 28 29  2  0
 21 30  1  0
 30 31  2  0
 13 32  1  0
 32 33  2  0
  5 34  1  0
 34 35  2  0
 35  3  1  0
 33 10  1  0
 19 14  1  0
 28 22  1  0
 30 17  1  0
  1 36  1  0
  1 37  1  0
  1 38  1  0
  2 39  1  0
  2 40  1  0
  4 41  1  0
 11 42  1  0
 15 43  1  0
 16 44  1  0
 19 45  1  0
 20 46  1  0
 20 47  1  0
 22 48  1  6
 23 49  1  0
 23 50  1  0
 24 51  1  0
 24 52  1  0
 27 53  1  0
 32 54  1  0
 34 55  1  0
M  END
>  <meeko>  (902) 
{"is_sidechain": [true], "free_energy": -11.18, "intermolecular_energy": 0.0, "internal_energy": -11.18, "cluster_size": 17, "cluster_id": 1, "rank_in_cluster": 1}

>  <_RMSD_MCS_to_ref>  (902) 
1.092744048510699

$$$$
ligand
     RDKit          3D

 52 56  0  0  0  0  0  0  0  0999 V2000
   24.8540    9.4020    7.6050 C   0  0  0  0  0  0  0  0  0  0  0  0
   25.5230   10.7550    7.4270 C   0  0  0  0  0  0  0  0  0  0  0  0
   25.1360   11.4100    6.1480 C   0  0  0  0  0  0  0  0  0  0  0  0
   24.7450   12.7160    5.9280 C   0  0  0  0  0  0  0  0  0  0  0  0
   24.4630   12.7590    4.5920 N   0  0  0  0  0  0  0  0  0  0  0  0
   24.1290   14.1380    3.6860 S   0  0  0  0  0  6  0  0  0  0  0  0
   22.7410   13.9540    3.2920 O   0  0  0  0  0  0  0  0  0  0  0  0
   25.1670   14.2220    2.6740 O   0  0  0  0  0  0  0  0  0  0  0  0
   24.1820   15.4480    4.6660 O   0  0  0  0  0  0  0  0  0  0  0  0
   25.2890   15.7640    5.4230 C   0  0  0  0  0  0  0  0  0  0  0  0
   26.5000   15.9610    4.8620 C   0  0  0  0  0  0  0  0  0  0  0  0
   27.6670   16.3190    5.6620 C   0  0  0  0  0  0  0  0  0  0  0  0
   27.5220   16.4830    6.9900 C   0  0  0  0  0  0  0  0  0  0  0  0
   26.2620   16.3070    7.5410 N   0  0  0  0  0  0  0  0  0  0  0  0
   25.1180   15.9650    6.8240 C   0  0  0  0  0  0  0  0  0  0  0  0
   24.0510   15.9030    7.5970 N   0  0  0  0  0  0  0  0  0  0  0  0
   24.5260   16.1850    8.8430 C   0  0  0  0  0  0  0  0  0  0  0  0
   23.8200   16.2980   10.4050 S   0  0  0  0  0  0  0  0  0  0  0  0
   25.3630   16.6960   11.0810 C   0  0  0  0  0  0  0  0  0  0  0  0
   25.5220   16.9520   12.5090 C   0  0  0  0  0  0  0  0  0  0  0  0
   25.6270   16.0500   13.3360 O   0  0  0  0  0  0  0  0  0  0  0  0
   25.5430   18.2730   12.8930 N   0  0  0  0  0  0  0  0  0  0  0  0
   25.5480   18.6760   14.2890 C   0  0  1  0  0  0  0  0  0  0  0  0
   26.6760   18.0150   15.0740 C   0  0  0  0  0  0  0  0  0  0  0  0
   26.6440   18.5010   16.5150 C   0  0  0  0  0  0  0  0  0  0  0  0
   26.7160   20.0080   16.5880 C   0  0  0  0  0  0  0  0  0  0  0  0
   27.2780   20.5970   17.5050 O   0  0  0  0  0  0  0  0  0  0  0  0
   26.0870   20.7030   15.5850 N   0  0  0  0  0  0  0  0  0  0  0  0
   25.7140   20.1970   14.3640 C   0  0  0  0  0  0  0  0  0  0  0  0
   25.5160   20.9370   13.4020 O   0  0  0  0  0  0  0  0  0  0  0  0
   26.3790   16.7360   10.1360 C   0  0  0  0  0  0  0  0  0  0  0  0
   25.8620   16.4360    8.8510 C   0  0  0  0  0  0  0  0  0  0  0  0
   24.7740   11.5600    4.0350 C   0  0  0  0  0  0  0  0  0  0  0  0
   25.1580   10.7040    4.9600 N   0  0  0  0  0  0  0  0  0  0  0  0
   24.7464    9.1845    8.6779 H   0  0  0  0  0  0  0  0  0  0  0  0
   23.8606    9.4192    7.1330 H   0  0  0  0  0  0  0  0  0  0  0  0
   25.4708    8.6230    7.1330 H   0  0  0  0  0  0  0  0  0  0  0  0
   25.2295   11.4079    8.2622 H   0  0  0  0  0  0  0  0  0  0  0  0
   26.6109   10.5937    7.4079 H   0  0  0  0  0  0  0  0  0  0  0  0
   24.6764   13.5339    6.6603 H   0  0  0  0  0  0  0  0  0  0  0  0
   26.6107   15.8489    3.7733 H   0  0  0  0  0  0  0  0  0  0  0  0
   28.6500   16.4527    5.1869 H   0  0  0  0  0  0  0  0  0  0  0  0
   28.3816   16.7500    7.6223 H   0  0  0  0  0  0  0  0  0  0  0  0
   25.5556   19.0019   12.1653 H   0  0  0  0  0  0  0  0  0  0  0  0
   24.5951   18.3577   14.7369 H   0  0  0  0  0  0  0  0  0  0  0  0
   26.5466   16.9229   15.0525 H   0  0  0  0  0  0  0  0  0  0  0  0
   27.6424   18.2789   14.6196 H   0  0  0  0  0  0  0  0  0  0  0  0
   25.7090   18.1638   16.9861 H   0  0  0  0  0  0  0  0  0  0  0  0
   27.5166   18.0860   17.0407 H   0  0  0  0  0  0  0  0  0  0  0  0
   25.8754   21.6949   15.7647 H   0  0  0  0  0  0  0  0  0  0  0  0
   27.4324   16.9670   10.3530 H   0  0  0  0  0  0  0  0  0  0  0  0
   24.7136   11.3347    2.9600 H   0  0  0  0  0  0  0  0  0  0  0  0
  1  2  1  0
  2  3  1  0
  3  4  2  0
  4  5  1  0
  5  6  1  0
  6  7  2  0
  6  8  2  0
  6  9  1  0
  9 10  1  0
 10 11  2  0
 11 12  1  0
 12 13  2  0
 13 14  1  0
 14 15  1  0
 15 16  2  0
 16 17  1  0
 17 18  1  0
 18 19  1  0
 19 20  1  0
 20 21  2  0
 20 22  1  0
 22 23  1  0
 23 24  1  0
 24 25  1  0
 25 26  1  0
 26 27  2  0
 26 28  1  0
 28 29  1  0
 29 30  2  0
 19 31  2  0
 31 32  1  0
  5 33  1  0
 33 34  2  0
 34  3  1  0
 15 10  1  0
 32 17  2  0
 32 14  1  0
 29 23  1  0
  1 35  1  0
  1 36  1  0
  1 37  1  0
  2 38  1  0
  2 39  1  0
  4 40  1  0
 11 41  1  0
 12 42  1  0
 13 43  1  0
 22 44  1  0
 23 45  1  1
 24 46  1  0
 24 47  1  0
 25 48  1  0
 25 49  1  0
 28 50  1  0
 31 51  1  0
 33 52  1  0
M  END
>  <meeko>  (903) 
{"is_sidechain": [true], "free_energy": -11.18, "intermolecular_energy": 0.0, "internal_energy": -11.18, "cluster_size": 20, "cluster_id": 1, "rank_in_cluster": 1}

>  <_RMSD_MCS_to_ref>  (903) 
0.724341003180744

$$$$
ligand
     RDKit          3D

 60 65  0  0  0  0  0  0  0  0999 V2000
   24.8540    9.4020    7.6050 C   0  0  0  0  0  0  0  0  0  0  0  0
   25.5230   10.7550    7.4270 C   0  0  0  0  0  0  0  0  0  0  0  0
   25.0070   11.4850    6.2360 C   0  0  0  0  0  0  0  0  0  0  0  0
   25.0100   12.8420    5.9800 C   0  0  0  0  0  0  0  0  0  0  0  0
   24.4030   12.9540    4.7630 N   0  0  0  0  0  0  0  0  0  0  0  0
   24.3350   14.3450    3.8230 S   0  0  0  0  0  6  0  0  0  0  0  0
   22.9280   14.6350    3.6350 O   0  0  0  0  0  0  0  0  0  0  0  0
   25.2380   14.1170    2.7120 O   0  0  0  0  0  0  0  0  0  0  0  0
   25.0340   15.5880    4.8730 C   0  0  0  0  0  0  0  0  0  0  0  0
   24.7030   15.6190    6.2260 C   0  0  0  0  0  0  0  0  0  0  0  0
   25.2610   16.6020    7.0560 C   0  0  0  0  0  0  0  0  0  0  0  0
   24.8920   16.6210    8.4780 C   0  0  0  0  0  0  0  0  0  0  0  0
   23.6760   16.0320    8.9050 C   0  0  0  0  0  0  0  0  0  0  0  0
   23.3010   16.0400   10.2510 C   0  0  0  0  0  0  0  0  0  0  0  0
   24.1660   16.6370   11.1460 C   0  0  0  0  0  0  0  0  0  0  0  0
   25.3680   17.2230   10.7560 C   0  0  0  0  0  0  0  0  0  0  0  0
   25.7450   17.2220    9.4230 C   0  0  0  0  0  0  0  0  0  0  0  0
   26.0640   17.7990   11.9450 C   0  0  0  0  0  0  0  0  0  0  0  0
   25.1940   17.4050   13.0460 N   0  0  0  0  0  0  0  0  0  0  0  0
   25.3050   17.9490   14.3930 C   0  0  1  0  0  0  0  0  0  0  0  0
   26.4400   17.3120   15.1880 C   0  0  0  0  0  0  0  0  0  0  0  0
   26.4370   17.8660   16.6060 C   0  0  0  0  0  0  0  0  0  0  0  0
   26.5260   19.3750   16.6010 C   0  0  0  0  0  0  0  0  0  0  0  0
   27.1510   19.9980   17.4540 O   0  0  0  0  0  0  0  0  0  0  0  0
   25.8550   20.0250   15.5980 N   0  0  0  0  0  0  0  0  0  0  0  0
   25.4960   19.4760   14.3880 C   0  0  0  0  0  0  0  0  0  0  0  0
   25.3610   20.1900   13.3970 O   0  0  0  0  0  0  0  0  0  0  0  0
   24.0300   16.7940   12.5980 C   0  0  0  0  0  0  0  0  0  0  0  0
   23.0680   16.4430   13.2530 O   0  0  0  0  0  0  0  0  0  0  0  0
   26.1660   17.5480    6.4910 C   0  0  0  0  0  0  0  0  0  0  0  0
   26.7990   18.5760    7.1910 C   0  0  0  0  0  0  0  0  0  0  0  0
   27.6550   19.4600    6.6430 N   0  0  0  0  0  0  0  0  0  0  0  0
   27.8860   19.3010    5.3370 C   0  0  0  0  0  0  0  0  0  0  0  0
   27.3450   18.3570    4.5510 N   0  0  0  0  0  0  0  0  0  0  0  0
   26.5010   17.4960    5.1280 C   0  0  0  0  0  0  0  0  0  0  0  0
   25.9330   16.5120    4.3370 C   0  0  0  0  0  0  0  0  0  0  0  0
   24.0990   11.7140    4.3010 C   0  0  0  0  0  0  0  0  0  0  0  0
   24.4450   10.7960    5.1790 N   0  0  0  0  0  0  0  0  0  0  0  0
   24.7464    9.1845    8.6779 H   0  0  0  0  0  0  0  0  0  0  0  0
   23.8606    9.4192    7.1330 H   0  0  0  0  0  0  0  0  0  0  0  0
   25.4708    8.6230    7.1330 H   0  0  0  0  0  0  0  0  0  0  0  0
   25.3359   11.3635    8.3240 H   0  0  0  0  0  0  0  0  0  0  0  0
   26.5991   10.5827    7.2776 H   0  0  0  0  0  0  0  0  0  0  0  0
   25.4101   13.6482    6.6124 H   0  0  0  0  0  0  0  0  0  0  0  0
   24.0069   14.8755    6.6414 H   0  0  0  0  0  0  0  0  0  0  0  0
   23.0151   15.5598    8.1632 H   0  0  0  0  0  0  0  0  0  0  0  0
   22.3547   15.5888   10.5840 H   0  0  0  0  0  0  0  0  0  0  0  0
   26.6933   17.6823    9.1087 H   0  0  0  0  0  0  0  0  0  0  0  0
   27.0705   17.3708   12.0617 H   0  0  0  0  0  0  0  0  0  0  0  0
   26.2179   18.8861   11.8771 H   0  0  0  0  0  0  0  0  0  0  0  0
   24.3504   17.7065   14.8829 H   0  0  0  0  0  0  0  0  0  0  0  0
   26.2990   16.2215   15.2197 H   0  0  0  0  0  0  0  0  0  0  0  0
   27.4012   17.5426   14.7054 H   0  0  0  0  0  0  0  0  0  0  0  0
   25.5065   17.5627   17.1082 H   0  0  0  0  0  0  0  0  0  0  0  0
   27.3122   17.4662   17.1391 H   0  0  0  0  0  0  0  0  0  0  0  0
   25.5974   21.0084   15.7640 H   0  0  0  0  0  0  0  0  0  0  0  0
   26.5839   18.6711    8.2656 H   0  0  0  0  0  0  0  0  0  0  0  0
   28.5828   20.0078    4.8627 H   0  0  0  0  0  0  0  0  0  0  0  0
   26.1940   16.4573    3.2698 H   0  0  0  0  0  0  0  0  0  0  0  0
   23.6291   11.5054    3.3285 H   0  0  0  0  0  0  0  0  0  0  0  0
  1  2  1  0
  2  3  1  0
  3  4  2  0
  4  5  1  0
  5  6  1  0
  6  7  2  0
  6  8  2  0
  6  9  1  0
  9 10  2  0
 10 11  1  0
 11 12  1  0
 12 13  2  0
 13 14  1  0
 14 15  2  0
 15 16  1  0
 16 17  2  0
 16 18  1  0
 18 19  1  0
 19 20  1  0
 20 21  1  0
 21 22  1  0
 22 23  1  0
 23 24  2  0
 23 25  1  0
 25 26  1  0
 26 27  2  0
 19 28  1  0
 28 29  2  0
 11 30  2  0
 30 31  1  0
 31 32  2  0
 32 33  1  0
 33 34  2  0
 34 35  1  0
 35 36  2  0
  5 37  1  0
 37 38  2  0
 38  3  1  0
 36  9  1  0
 17 12  1  0
 26 20  1  0
 35 30  1  0
 28 15  1  0
  1 39  1  0
  1 40  1  0
  1 41  1  0
  2 42  1  0
  2 43  1  0
  4 44  1  0
 10 45  1  0
 13 46  1  0
 14 47  1  0
 17 48  1  0
 18 49  1  0
 18 50  1  0
 20 51  1  1
 21 52  1  0
 21 53  1  0
 22 54  1  0
 22 55  1  0
 25 56  1  0
 31 57  1  0
 33 58  1  0
 36 59  1  0
 37 60  1  0
M  END
>  <meeko>  (904) 
{"is_sidechain": [true], "free_energy": -11.18, "intermolecular_energy": 0.0, "internal_energy": -11.18, "cluster_size": 20, "cluster_id": 1, "rank_in_cluster": 1}

>  <_RMSD_MCS_to_ref>  (904) 
0.6968174477978825

$$$$
ligand
     RDKit          3D

 55 58  0  0  0  0  0  0  0  0999 V2000
   24.8540    9.4020    7.6050 C   0  0  0  0  0  0  0  0  0  0  0  0
   25.5230   10.7550    7.4270 C   0  0  0  0  0  0  0  0  0  0  0  0
   27.0030   10.6710    7.5570 C   0  0  0  0  0  0  0  0  0  0  0  0
   27.9290   11.6940    7.6120 C   0  0  0  0  0  0  0  0  0  0  0  0
   29.1330   11.0520    7.6930 N   0  0  0  0  0  0  0  0  0  0  0  0
   30.6180   11.7790    8.0260 S   0  0  0  0  0  6  0  0  0  0  0  0
   30.8010   12.7390    6.9540 O   0  0  0  0  0  0  0  0  0  0  0  0
   31.5320   10.6690    8.2170 O   0  0  0  0  0  0  0  0  0  0  0  0
   30.4180   12.5700    9.4360 O   0  0  0  0  0  0  0  0  0  0  0  0
   29.3350   13.3720    9.6890 C   0  0  0  0  0  0  0  0  0  0  0  0
   28.0590   12.9270   10.0180 C   0  0  0  0  0  0  0  0  0  0  0  0
   27.0360   13.8520   10.2360 C   0  0  0  0  0  0  0  0  0  0  0  0
   27.2840   15.2340   10.1550 C   0  0  0  0  0  0  0  0  0  0  0  0
   28.5700   15.6890    9.8190 C   0  0  0  0  0  0  0  0  0  0  0  0
   29.5770   14.7450    9.5790 C   0  0  0  0  0  0  0  0  0  0  0  0
   28.8290   17.0330    9.5390 N   0  0  0  0  0  0  0  0  0  0  0  0
   27.8340   18.0280    9.9100 C   0  0  0  0  0  0  0  0  0  0  0  0
   26.4290   17.5130    9.6210 C   0  0  0  0  0  0  0  0  0  0  0  0
   26.1700   16.2320   10.4260 C   0  0  2  0  0  0  0  0  0  0  0  0
   25.9900   16.5700   11.9190 C   0  0  0  0  0  0  0  0  0  0  0  0
   25.9390   15.7100   12.7980 O   0  0  0  0  0  0  0  0  0  0  0  0
   25.9810   17.9100   12.2380 N   0  0  0  0  0  0  0  0  0  0  0  0
   25.7270   18.3580   13.6020 C   0  0  1  0  0  0  0  0  0  0  0  0
   26.6760   17.7150   14.6080 C   0  0  0  0  0  0  0  0  0  0  0  0
   26.3830   18.2560   15.9990 C   0  0  0  0  0  0  0  0  0  0  0  0
   26.4680   19.7650   16.0300 C   0  0  0  0  0  0  0  0  0  0  0  0
   26.8610   20.3820   17.0150 O   0  0  0  0  0  0  0  0  0  0  0  0
   26.0520   20.4270   14.9040 N   0  0  0  0  0  0  0  0  0  0  0  0
   25.9050   19.8790   13.6540 C   0  0  0  0  0  0  0  0  0  0  0  0
   25.9040   20.5830   12.6440 O   0  0  0  0  0  0  0  0  0  0  0  0
   28.9170    9.7130    7.7710 C   0  0  0  0  0  0  0  0  0  0  0  0
   27.6320    9.4470    7.6640 N   0  0  0  0  0  0  0  0  0  0  0  0
   24.7464    9.1845    8.6779 H   0  0  0  0  0  0  0  0  0  0  0  0
   23.8606    9.4192    7.1330 H   0  0  0  0  0  0  0  0  0  0  0  0
   25.4708    8.6230    7.1330 H   0  0  0  0  0  0  0  0  0  0  0  0
   25.2765   11.1435    6.4278 H   0  0  0  0  0  0  0  0  0  0  0  0
   25.1515   11.4225    8.2185 H   0  0  0  0  0  0  0  0  0  0  0  0
   27.7407   12.7776    7.5946 H   0  0  0  0  0  0  0  0  0  0  0  0
   27.8563   11.8494   10.1062 H   0  0  0  0  0  0  0  0  0  0  0  0
   26.0231   13.4952   10.4742 H   0  0  0  0  0  0  0  0  0  0  0  0
   30.5821   15.0921    9.2973 H   0  0  0  0  0  0  0  0  0  0  0  0
   29.7067   17.3140    9.0791 H   0  0  0  0  0  0  0  0  0  0  0  0
   27.9250   18.2477   10.9840 H   0  0  0  0  0  0  0  0  0  0  0  0
   28.0065   18.9401    9.3199 H   0  0  0  0  0  0  0  0  0  0  0  0
   25.6931   18.2791    9.9067 H   0  0  0  0  0  0  0  0  0  0  0  0
   26.3362   17.2927    8.5473 H   0  0  0  0  0  0  0  0  0  0  0  0
   25.2306   15.7565   10.1077 H   0  0  0  0  0  0  0  0  0  0  0  0
   26.1567   18.6072   11.5005 H   0  0  0  0  0  0  0  0  0  0  0  0
   24.7030   18.0620   13.8735 H   0  0  0  0  0  0  0  0  0  0  0  0
   26.5334   16.6243   14.6013 H   0  0  0  0  0  0  0  0  0  0  0  0
   27.7150   17.9507   14.3343 H   0  0  0  0  0  0  0  0  0  0  0  0
   25.3701   17.9479   16.2974 H   0  0  0  0  0  0  0  0  0  0  0  0
   27.1332   17.8514   16.6943 H   0  0  0  0  0  0  0  0  0  0  0  0
   25.8293   21.4275   15.0052 H   0  0  0  0  0  0  0  0  0  0  0  0
   29.7050    8.9572    7.9048 H   0  0  0  0  0  0  0  0  0  0  0  0
  1  2  1  0
  2  3  1  0
  3  4  2  0
  4  5  1  0
  5  6  1  0
  6  7  2  0
  6  8  2  0
  6  9  1  0
  9 10  1  0
 10 11  2  0
 11 12  1  0
 12 13  2  0
 13 14  1  0
 14 15  2  0
 14 16  1  0
 16 17  1  0
 17 18  1  0
 18 19  1  0
 19 20  1  0
 20 21  2  0
 20 22  1  0
 22 23  1  0
 23 24  1  0
 24 25  1  0
 25 26  1  0
 26 27  2  0
 26 28  1  0
 28 29  1  0
 29 30  2  0
  5 31  1  0
 31 32  2  0
 32  3  1  0
 15 10  1  0
 29 23  1  0
 19 13  1  0
  1 33  1  0
  1 34  1  0
  1 35  1  0
  2 36  1  0
  2 37  1  0
  4 38  1  0
 11 39  1  0
 12 40  1  0
 15 41  1  0
 16 42  1  0
 17 43  1  0
 17 44  1  0
 18 45  1  0
 18 46  1  0
 19 47  1  6
 22 48  1  0
 23 49  1  1
 24 50  1  0
 24 51  1  0
 25 52  1  0
 25 53  1  0
 28 54  1  0
 31 55  1  0
M  END
>  <meeko>  (905) 
{"is_sidechain": [true], "free_energy": -11.18, "intermolecular_energy": 0.0, "internal_energy": -11.18, "cluster_size": 19, "cluster_id": 1, "rank_in_cluster": 1}

>  <_RMSD_MCS_to_ref>  (905) 
1.1532934964218289

$$$$
ligand
     RDKit          3D

 53 57  0  0  0  0  0  0  0  0999 V2000
   24.8540    9.4020    7.6050 C   0  0  0  0  0  0  0  0  0  0  0  0
   25.5230   10.7550    7.4270 C   0  0  0  0  0  0  0  0  0  0  0  0
   24.9670   11.5090    6.2700 C   0  0  0  0  0  0  0  0  0  0  0  0
   25.0030   12.8660    6.0190 C   0  0  0  0  0  0  0  0  0  0  0  0
   24.3290   13.0050    4.8390 N   0  0  0  0  0  0  0  0  0  0  0  0
   24.1790   14.4370    3.9630 S   0  0  0  0  0  6  0  0  0  0  0  0
   22.7540   14.5360    3.7040 O   0  0  0  0  0  0  0  0  0  0  0  0
   25.1280   14.3360    2.8690 O   0  0  0  0  0  0  0  0  0  0  0  0
   24.5850   15.6760    4.9390 O   0  0  0  0  0  0  0  0  0  0  0  0
   25.8280   15.9400    5.3180 C   0  0  0  0  0  0  0  0  0  0  0  0
   26.7940   15.9330    4.3540 O   0  0  0  0  0  0  0  0  0  0  0  0
   27.9420   16.1990    5.0320 C   0  0  0  0  0  0  0  0  0  0  0  0
   27.7950   16.3630    6.3260 N   0  0  0  0  0  0  0  0  0  0  0  0
   26.4370   16.2110    6.5280 C   0  0  0  0  0  0  0  0  0  0  0  0
   25.8220   16.3090    7.8450 C   0  0  0  0  0  0  0  0  0  0  0  0
   24.5530   15.7500    8.1310 C   0  0  0  0  0  0  0  0  0  0  0  0
   23.9830   15.8560    9.4050 C   0  0  0  0  0  0  0  0  0  0  0  0
   24.7020   16.5260   10.3720 C   0  0  0  0  0  0  0  0  0  0  0  0
   25.9460   17.0940   10.1210 C   0  0  0  0  0  0  0  0  0  0  0  0
   26.5160   16.9950    8.8630 C   0  0  0  0  0  0  0  0  0  0  0  0
   26.4570   17.7740   11.3470 C   0  0  0  0  0  0  0  0  0  0  0  0
   25.4350   17.4490   12.3370 N   0  0  0  0  0  0  0  0  0  0  0  0
   25.3480   18.0930   13.6420 C   0  0  1  0  0  0  0  0  0  0  0  0
   26.2160   17.4060   14.6920 C   0  0  0  0  0  0  0  0  0  0  0  0
   26.0020   18.0750   16.0410 C   0  0  0  0  0  0  0  0  0  0  0  0
   26.2780   19.5580   15.9640 C   0  0  0  0  0  0  0  0  0  0  0  0
   26.7900   20.1800   16.8900 O   0  0  0  0  0  0  0  0  0  0  0  0
   25.9110   20.1900   14.8040 N   0  0  0  0  0  0  0  0  0  0  0  0
   25.7230   19.5840   13.5830 C   0  0  0  0  0  0  0  0  0  0  0  0
   25.8650   20.2240   12.5440 O   0  0  0  0  0  0  0  0  0  0  0  0
   24.3530   16.7890   11.7730 C   0  0  0  0  0  0  0  0  0  0  0  0
   23.3070   16.4730   12.3050 O   0  0  0  0  0  0  0  0  0  0  0  0
   23.9410   11.7810    4.3970 C   0  0  0  0  0  0  0  0  0  0  0  0
   24.3130   10.8470    5.2480 N   0  0  0  0  0  0  0  0  0  0  0  0
   24.7464    9.1845    8.6779 H   0  0  0  0  0  0  0  0  0  0  0  0
   23.8606    9.4192    7.1330 H   0  0  0  0  0  0  0  0  0  0  0  0
   25.4708    8.6230    7.1330 H   0  0  0  0  0  0  0  0  0  0  0  0
   25.3726   11.3477    8.3414 H   0  0  0  0  0  0  0  0  0  0  0  0
   26.5919   10.5806    7.2344 H   0  0  0  0  0  0  0  0  0  0  0  0
   25.4678   13.6544    6.6292 H   0  0  0  0  0  0  0  0  0  0  0  0
   28.9201   16.2713    4.5338 H   0  0  0  0  0  0  0  0  0  0  0  0
   24.0045   15.2223    7.3368 H   0  0  0  0  0  0  0  0  0  0  0  0
   22.9974   15.4207    9.6266 H   0  0  0  0  0  0  0  0  0  0  0  0
   27.4985   17.4461    8.6601 H   0  0  0  0  0  0  0  0  0  0  0  0
   27.4385   17.3752   11.6431 H   0  0  0  0  0  0  0  0  0  0  0  0
   26.6132   18.8550   11.2163 H   0  0  0  0  0  0  0  0  0  0  0  0
   24.2929   17.9998   13.9387 H   0  0  0  0  0  0  0  0  0  0  0  0
   25.9374   16.3441   14.7607 H   0  0  0  0  0  0  0  0  0  0  0  0
   27.2746   17.4887   14.4048 H   0  0  0  0  0  0  0  0  0  0  0  0
   24.9600   17.9197   16.3574 H   0  0  0  0  0  0  0  0  0  0  0  0
   26.6978   17.6280   16.7663 H   0  0  0  0  0  0  0  0  0  0  0  0
   25.7630   21.2082   14.8506 H   0  0  0  0  0  0  0  0  0  0  0  0
   23.3937   11.5958    3.4610 H   0  0  0  0  0  0  0  0  0  0  0  0
  1  2  1  0
  2  3  1  0
  3  4  2  0
  4  5  1  0
  5  6  1  0
  6  7  2  0
  6  8  2  0
  6  9  1  0
  9 10  1  0
 10 11  1  0
 11 12  1  0
 12 13  2  0
 13 14  1  0
 14 15  1  0
 15 16  2  0
 16 17  1  0
 17 18  2  0
 18 19  1  0
 19 20  2  0
 19 21  1  0
 21 22  1  0
 22 23  1  0
 23 24  1  0
 24 25  1  0
 25 26  1  0
 26 27  2  0
 26 28  1  0
 28 29  1  0
 29 30  2  0
 22 31  1  0
 31 32  2  0
  5 33  1  0
 33 34  2  0
 34  3  1  0
 14 10  2  0
 20 15  1  0
 29 23  1  0
 31 18  1  0
  1 35  1  0
  1 36  1  0
  1 37  1  0
  2 38  1  0
  2 39  1  0
  4 40  1  0
 12 41  1  0
 16 42  1  0
 17 43  1  0
 20 44  1  0
 21 45  1  0
 21 46  1  0
 23 47  1  1
 24 48  1  0
 24 49  1  0
 25 50  1  0
 25 51  1  0
 28 52  1  0
 33 53  1  0
M  END
>  <meeko>  (906) 
{"is_sidechain": [true], "free_energy": -11.18, "intermolecular_energy": 0.0, "internal_energy": -11.18, "cluster_size": 15, "cluster_id": 1, "rank_in_cluster": 1}

>  <_RMSD_MCS_to_ref>  (906) 
1.1169399168163776

$$$$
ligand
     RDKit          3D

 55 59  0  0  0  0  0  0  0  0999 V2000
   24.8710    9.6160    7.7820 C   0  0  0  0  0  0  0  0  0  0  0  0
   25.4240   10.9650    7.3490 C   0  0  0  0  0  0  0  0  0  0  0  0
   25.0220   11.3180    5.9600 C   0  0  0  0  0  0  0  0  0  0  0  0
   24.2170   12.3520    5.5240 C   0  0  0  0  0  0  0  0  0  0  0  0
   24.1590   12.1830    4.1690 N   0  0  0  0  0  0  0  0  0  0  0  0
   23.5320   13.2920    3.0690 S   0  0  0  0  0  6  0  0  0  0  0  0
   23.7630   12.7000    1.7640 O   0  0  0  0  0  0  0  0  0  0  0  0
   22.1920   13.5790    3.5450 O   0  0  0  0  0  0  0  0  0  0  0  0
   24.4430   14.6370    3.2070 O   0  0  0  0  0  0  0  0  0  0  0  0
   25.3530   14.7970    4.2190 C   0  0  0  0  0  0  0  0  0  0  0  0
   26.7280   14.7460    4.0980 C   0  0  0  0  0  0  0  0  0  0  0  0
   27.5430   14.9250    5.1550 N   0  0  0  0  0  0  0  0  0  0  0  0
   27.0040   15.1620    6.3910 N   0  0  0  0  0  0  0  0  0  0  0  0
   25.6630   15.2150    6.5660 C   0  0  0  0  0  0  0  0  0  0  0  0
   25.1960   15.4810    7.9420 C   0  0  0  0  0  0  0  0  0  0  0  0
   24.0760   14.8030    8.4940 C   0  0  0  0  0  0  0  0  0  0  0  0
   23.6260   15.0560    9.7950 C   0  0  0  0  0  0  0  0  0  0  0  0
   24.3190   15.9890   10.5370 C   0  0  0  0  0  0  0  0  0  0  0  0
   25.4220   16.6710   10.0390 C   0  0  0  0  0  0  0  0  0  0  0  0
   25.8700   16.4270    8.7500 C   0  0  0  0  0  0  0  0  0  0  0  0
   25.9400   17.6220   11.0630 C   0  0  0  0  0  0  0  0  0  0  0  0
   25.0990   17.3360   12.2190 N   0  0  0  0  0  0  0  0  0  0  0  0
   25.1140   18.1950   13.3970 C   0  0  2  0  0  0  0  0  0  0  0  0
   25.6590   19.5980   13.1290 C   0  0  0  0  0  0  0  0  0  0  0  0
   25.5710   20.4250   14.4020 C   0  0  0  0  0  0  0  0  0  0  0  0
   26.3090   19.7590   15.5390 C   0  0  0  0  0  0  0  0  0  0  0  0
   26.7360   20.3910   16.5020 O   0  0  0  0  0  0  0  0  0  0  0  0
   26.4120   18.3900   15.4900 N   0  0  0  0  0  0  0  0  0  0  0  0
   25.8740   17.5350   14.5570 C   0  0  0  0  0  0  0  0  0  0  0  0
   25.9270   16.3170   14.7290 O   0  0  0  0  0  0  0  0  0  0  0  0
   24.0770   16.4520   11.9080 C   0  0  0  0  0  0  0  0  0  0  0  0
   23.1330   16.1110   12.5940 O   0  0  0  0  0  0  0  0  0  0  0  0
   24.8140   15.0380    5.4810 C   0  0  0  0  0  0  0  0  0  0  0  0
   24.9600   11.1450    3.8170 C   0  0  0  0  0  0  0  0  0  0  0  0
   25.4810   10.5810    4.8860 N   0  0  0  0  0  0  0  0  0  0  0  0
   24.8497    9.5640    8.8806 H   0  0  0  0  0  0  0  0  0  0  0  0
   23.8507    9.4948    7.3893 H   0  0  0  0  0  0  0  0  0  0  0  0
   25.5127    8.8135    7.3893 H   0  0  0  0  0  0  0  0  0  0  0  0
   25.0474   11.7387    8.0342 H   0  0  0  0  0  0  0  0  0  0  0  0
   26.5220   10.9048    7.3777 H   0  0  0  0  0  0  0  0  0  0  0  0
   23.7332   13.1330    6.1289 H   0  0  0  0  0  0  0  0  0  0  0  0
   27.1702   14.5535    3.1094 H   0  0  0  0  0  0  0  0  0  0  0  0
   23.5474   14.0579    7.8813 H   0  0  0  0  0  0  0  0  0  0  0  0
   22.7530   14.5307   10.2096 H   0  0  0  0  0  0  0  0  0  0  0  0
   26.7449   16.9660    8.3574 H   0  0  0  0  0  0  0  0  0  0  0  0
   26.9996   17.4274   11.2853 H   0  0  0  0  0  0  0  0  0  0  0  0
   25.8996   18.6736   10.7428 H   0  0  0  0  0  0  0  0  0  0  0  0
   24.0594   18.3219   13.6828 H   0  0  0  0  0  0  0  0  0  0  0  0
   26.7088   19.5289   12.8080 H   0  0  0  0  0  0  0  0  0  0  0  0
   25.0654   20.0779   12.3370 H   0  0  0  0  0  0  0  0  0  0  0  0
   26.0139   21.4149   14.2179 H   0  0  0  0  0  0  0  0  0  0  0  0
   24.5117   20.5198   14.6829 H   0  0  0  0  0  0  0  0  0  0  0  0
   26.9589   17.9504   16.2440 H   0  0  0  0  0  0  0  0  0  0  0  0
   23.7236   15.0878    5.6172 H   0  0  0  0  0  0  0  0  0  0  0  0
   25.1474   10.8206    2.7828 H   0  0  0  0  0  0  0  0  0  0  0  0
  1  2  1  0
  2  3  1  0
  3  4  2  0
  4  5  1  0
  5  6  1  0
  6  7  2  0
  6  8  2  0
  6  9  1  0
  9 10  1  0
 10 11  2  0
 11 12  1  0
 12 13  2  0
 13 14  1  0
 14 15  1  0
 15 16  2  0
 16 17  1  0
 17 18  2  0
 18 19  1  0
 19 20  2  0
 19 21  1  0
 21 22  1  0
 22 23  1  0
 23 24  1  0
 24 25  1  0
 25 26  1  0
 26 27  2  0
 26 28  1  0
 28 29  1  0
 29 30  2  0
 22 31  1  0
 31 32  2  0
 14 33  2  0
  5 34  1  0
 34 35  2  0
 35  3  1  0
 33 10  1  0
 20 15  1  0
 29 23  1  0
 31 18  1  0
  1 36  1  0
  1 37  1  0
  1 38  1  0
  2 39  1  0
  2 40  1  0
  4 41  1  0
 11 42  1  0
 16 43  1  0
 17 44  1  0
 20 45  1  0
 21 46  1  0
 21 47  1  0
 23 48  1  1
 24 49  1  0
 24 50  1  0
 25 51  1  0
 25 52  1  0
 28 53  1  0
 33 54  1  0
 34 55  1  0
M  END
>  <meeko>  (907) 
{"is_sidechain": [true], "free_energy": -11.18, "intermolecular_energy": 0.0, "internal_energy": -11.18, "cluster_size": 3, "cluster_id": 2, "rank_in_cluster": 1}

>  <_RMSD_MCS_to_ref>  (907) 
1.843244722022325

$$$$
ligand
     RDKit          3D

 62 67  0  0  0  0  0  0  0  0999 V2000
   24.8710    9.6160    7.7820 C   0  0  0  0  0  0  0  0  0  0  0  0
   25.4240   10.9650    7.3490 C   0  0  0  0  0  0  0  0  0  0  0  0
   26.5790   11.3940    8.1840 C   0  0  0  0  0  0  0  0  0  0  0  0
   27.6260   12.2300    7.8520 C   0  0  0  0  0  0  0  0  0  0  0  0
   28.3900   12.2700    8.9830 N   0  0  0  0  0  0  0  0  0  0  0  0
   29.7980   13.1620    9.2250 S   0  0  0  0  0  6  0  0  0  0  0  0
   29.9160   13.2430   10.6710 O   0  0  0  0  0  0  0  0  0  0  0  0
   30.8280   12.4970    8.4440 O   0  0  0  0  0  0  0  0  0  0  0  0
   29.5770   14.6720    8.6640 O   0  0  0  0  0  0  0  0  0  0  0  0
   28.9470   14.7940    7.4540 C   0  0  0  0  0  0  0  0  0  0  0  0
   29.6970   14.4770    6.3820 N   0  0  0  0  0  0  0  0  0  0  0  0
   29.0810   14.5380    5.1830 C   0  0  0  0  0  0  0  0  0  0  0  0
   27.7480   14.9010    4.9940 C   0  0  0  0  0  0  0  0  0  0  0  0
   27.1750   14.9480    3.7110 C   0  0  0  0  0  0  0  0  0  0  0  0
   25.8420   15.3150    3.5430 C   0  0  0  0  0  0  0  0  0  0  0  0
   25.0690   15.6380    4.6510 C   0  0  0  0  0  0  0  0  0  0  0  0
   25.6290   15.5930    5.9300 C   0  0  0  0  0  0  0  0  0  0  0  0
   26.9780   15.2210    6.1370 C   0  0  0  0  0  0  0  0  0  0  0  0
   27.5970   15.1580    7.4160 C   0  0  0  0  0  0  0  0  0  0  0  0
   26.8730   15.4690    8.6600 C   0  0  0  0  0  0  0  0  0  0  0  0
   25.6420   14.8280    8.9490 C   0  0  0  0  0  0  0  0  0  0  0  0
   24.9430   15.1030   10.1270 C   0  0  0  0  0  0  0  0  0  0  0  0
   25.5020   16.0160   10.9990 C   0  0  0  0  0  0  0  0  0  0  0  0
   26.7100   16.6590   10.7430 C   0  0  0  0  0  0  0  0  0  0  0  0
   27.4060   16.4000    9.5740 C   0  0  0  0  0  0  0  0  0  0  0  0
   27.0420   17.5910   11.8600 C   0  0  0  0  0  0  0  0  0  0  0  0
   25.9580   17.3500   12.8060 N   0  0  0  0  0  0  0  0  0  0  0  0
   25.6920   18.2020   13.9570 C   0  0  1  0  0  0  0  0  0  0  0  0
   26.2960   17.6510   15.2450 C   0  0  0  0  0  0  0  0  0  0  0  0
   25.9020   18.5450   16.4110 C   0  0  0  0  0  0  0  0  0  0  0  0
   26.3110   19.9770   16.1640 C   0  0  0  0  0  0  0  0  0  0  0  0
   26.6960   20.7160   17.0650 O   0  0  0  0  0  0  0  0  0  0  0  0
   26.2150   20.4280   14.8720 N   0  0  0  0  0  0  0  0  0  0  0  0
   26.1980   19.6400   13.7440 C   0  0  0  0  0  0  0  0  0  0  0  0
   26.5770   20.0920   12.6660 O   0  0  0  0  0  0  0  0  0  0  0  0
   24.9970   16.4910   12.2910 C   0  0  0  0  0  0  0  0  0  0  0  0
   23.9340   16.1730   12.7860 O   0  0  0  0  0  0  0  0  0  0  0  0
   27.8090   11.5080    9.9440 C   0  0  0  0  0  0  0  0  0  0  0  0
   26.7060   10.9500    9.4870 N   0  0  0  0  0  0  0  0  0  0  0  0
   24.8497    9.5640    8.8806 H   0  0  0  0  0  0  0  0  0  0  0  0
   23.8507    9.4948    7.3893 H   0  0  0  0  0  0  0  0  0  0  0  0
   25.5127    8.8135    7.3893 H   0  0  0  0  0  0  0  0  0  0  0  0
   25.7515   10.8937    6.3013 H   0  0  0  0  0  0  0  0  0  0  0  0
   24.6251   11.7115    7.4691 H   0  0  0  0  0  0  0  0  0  0  0  0
   27.8039   12.7452    6.8965 H   0  0  0  0  0  0  0  0  0  0  0  0
   29.6725   14.2832    4.2912 H   0  0  0  0  0  0  0  0  0  0  0  0
   27.7850   14.6926    2.8320 H   0  0  0  0  0  0  0  0  0  0  0  0
   25.4024   15.3490    2.5352 H   0  0  0  0  0  0  0  0  0  0  0  0
   24.0162   15.9291    4.5213 H   0  0  0  0  0  0  0  0  0  0  0  0
   25.0053   15.8534    6.7979 H   0  0  0  0  0  0  0  0  0  0  0  0
   25.2300   14.1014    8.2332 H   0  0  0  0  0  0  0  0  0  0  0  0
   23.9848   14.6114   10.3510 H   0  0  0  0  0  0  0  0  0  0  0  0
   28.3568   16.9113    9.3629 H   0  0  0  0  0  0  0  0  0  0  0  0
   28.0185   17.3473   12.3040 H   0  0  0  0  0  0  0  0  0  0  0  0
   27.1229   18.6417   11.5447 H   0  0  0  0  0  0  0  0  0  0  0  0
   24.5968   18.2164   14.0588 H   0  0  0  0  0  0  0  0  0  0  0  0
   25.9198   16.6323   15.4202 H   0  0  0  0  0  0  0  0  0  0  0  0
   27.3921   17.6260   15.1554 H   0  0  0  0  0  0  0  0  0  0  0  0
   24.8109   18.5014   16.5438 H   0  0  0  0  0  0  0  0  0  0  0  0
   26.4175   18.1866   17.3142 H   0  0  0  0  0  0  0  0  0  0  0  0
   26.1499   21.4466   14.7340 H   0  0  0  0  0  0  0  0  0  0  0  0
   28.2036   11.3747   10.9621 H   0  0  0  0  0  0  0  0  0  0  0  0
  1  2  1  0
  2  3  1  0
  3  4  2  0
  4  5  1  0
  5  6  1  0
  6  7  2  0
  6  8  2  0
  6  9  1  0
  9 10  1  0
 10 11  2  0
 11 12  1  0
 12 13  2  0
 13 14  1  0
 14 15  2  0
 15 16  1  0
 16 17  2  0
 17 18  1  0
 18 19  2  0
 19 20  1  0
 20 21  2  0
 21 22  1  0
 22 23  2  0
 23 24  1  0
 24 25  2  0
 24 26  1  0
 26 27  1  0
 27 28  1  0
 28 29  1  0
 29 30  1  0
 30 31  1  0
 31 32  2  0
 31 33  1  0
 33 34  1  0
 34 35  2  0
 27 36  1  0
 36 37  2  0
  5 38  1  0
 38 39  2  0
 39  3  1  0
 19 10  1  0
 25 20  1  0
 34 28  1  0
 18 13  1  0
 36 23  1  0
  1 40  1  0
  1 41  1  0
  1 42  1  0
  2 43  1  0
  2 44  1  0
  4 45  1  0
 12 46  1  0
 14 47  1  0
 15 48  1  0
 16 49  1  0
 17 50  1  0
 21 51  1  0
 22 52  1  0
 25 53  1  0
 26 54  1  0
 26 55  1  0
 28 56  1  1
 29 57  1  0
 29 58  1  0
 30 59  1  0
 30 60  1  0
 33 61  1  0
 38 62  1  0
M  END
>  <meeko>  (908) 
{"is_sidechain": [true], "free_energy": -11.18, "intermolecular_energy": 0.0, "internal_energy": -11.18, "cluster_size": 4, "cluster_id": 1, "rank_in_cluster": 1}

>  <_RMSD_MCS_to_ref>  (908) 
1.3964203107268696

$$$$
ligand
     RDKit          3D

 49 52  0  0  0  0  0  0  0  0999 V2000
   24.8710    9.6160    7.7820 C   0  0  0  0  0  0  0  0  0  0  0  0
   25.4240   10.9650    7.3490 C   0  0  0  0  0  0  0  0  0  0  0  0
   26.4480   11.4830    8.2950 C   0  0  0  0  0  0  0  0  0  0  0  0
   27.1590   12.6670    8.2450 C   0  0  0  0  0  0  0  0  0  0  0  0
   27.9270   12.6450    9.3740 N   0  0  0  0  0  0  0  0  0  0  0  0
   29.1760   13.7180    9.7380 S   0  0  0  0  0  6  0  0  0  0  0  0
   29.7060   13.2430   11.0030 O   0  0  0  0  0  0  0  0  0  0  0  0
   29.9910   13.7520    8.5380 O   0  0  0  0  0  0  0  0  0  0  0  0
   28.4670   15.1680    9.9550 O   0  0  0  0  0  0  0  0  0  0  0  0
   27.1130   15.3560    9.8470 C   0  0  0  0  0  0  0  0  0  0  0  0
   26.3490   15.1000    8.7190 C   0  0  0  0  0  0  0  0  0  0  0  0
   24.9710   15.3350    8.7300 C   0  0  0  0  0  0  0  0  0  0  0  0
   24.3620   15.8320    9.8990 C   0  0  0  0  0  0  0  0  0  0  0  0
   22.6950   16.1860   10.1130 S   0  0  0  0  0  0  0  0  0  0  0  0
   22.9360   16.6960   11.7180 C   0  0  0  0  0  0  0  0  0  0  0  0
   24.2530   16.5980   12.1330 C   0  0  0  0  0  0  0  0  0  0  0  0
   24.7270   16.9760   13.4700 C   0  0  0  0  0  0  0  0  0  0  0  0
   24.9080   16.1560   14.3650 O   0  0  0  0  0  0  0  0  0  0  0  0
   24.9360   18.3230   13.6720 N   0  0  0  0  0  0  0  0  0  0  0  0
   25.2520   18.8470   14.9930 C   0  0  1  0  0  0  0  0  0  0  0  0
   26.3930   18.0850   15.6600 C   0  0  0  0  0  0  0  0  0  0  0  0
   26.7000   18.7130   17.0100 C   0  0  0  0  0  0  0  0  0  0  0  0
   27.0090   20.1860   16.8750 C   0  0  0  0  0  0  0  0  0  0  0  0
   27.8180   20.7590   17.5980 O   0  0  0  0  0  0  0  0  0  0  0  0
   26.3140   20.8730   15.9110 N   0  0  0  0  0  0  0  0  0  0  0  0
   25.6540   20.3160   14.8440 C   0  0  0  0  0  0  0  0  0  0  0  0
   25.3940   20.9760   13.8380 O   0  0  0  0  0  0  0  0  0  0  0  0
   25.0980   16.1010   11.0550 C   0  0  0  0  0  0  0  0  0  0  0  0
   26.4960   15.8500   11.0050 C   0  0  0  0  0  0  0  0  0  0  0  0
   27.7400   11.4620   10.0150 C   0  0  0  0  0  0  0  0  0  0  0  0
   26.8250   10.7430    9.3990 N   0  0  0  0  0  0  0  0  0  0  0  0
   24.8497    9.5640    8.8806 H   0  0  0  0  0  0  0  0  0  0  0  0
   23.8507    9.4948    7.3893 H   0  0  0  0  0  0  0  0  0  0  0  0
   25.5127    8.8135    7.3893 H   0  0  0  0  0  0  0  0  0  0  0  0
   25.8825   10.8572    6.3550 H   0  0  0  0  0  0  0  0  0  0  0  0
   24.5894   11.6813    7.3297 H   0  0  0  0  0  0  0  0  0  0  0  0
   27.1161   13.4487    7.4722 H   0  0  0  0  0  0  0  0  0  0  0  0
   26.8299   14.7097    7.8099 H   0  0  0  0  0  0  0  0  0  0  0  0
   24.3671   15.1334    7.8330 H   0  0  0  0  0  0  0  0  0  0  0  0
   22.1254   17.0670   12.3624 H   0  0  0  0  0  0  0  0  0  0  0  0
   24.8674   18.9707   12.8741 H   0  0  0  0  0  0  0  0  0  0  0  0
   24.3620   18.7342   15.6295 H   0  0  0  0  0  0  0  0  0  0  0  0
   26.0987   17.0347   15.8025 H   0  0  0  0  0  0  0  0  0  0  0  0
   27.2877   18.1314   15.0218 H   0  0  0  0  0  0  0  0  0  0  0  0
   25.8280   18.5891   17.6690 H   0  0  0  0  0  0  0  0  0  0  0  0
   27.5829   18.2112   17.4327 H   0  0  0  0  0  0  0  0  0  0  0  0
   26.2851   21.8991   15.9959 H   0  0  0  0  0  0  0  0  0  0  0  0
   27.1089   16.0482   11.8967 H   0  0  0  0  0  0  0  0  0  0  0  0
   28.2778   11.1485   10.9219 H   0  0  0  0  0  0  0  0  0  0  0  0
  1  2  1  0
  2  3  1  0
  3  4  2  0
  4  5  1  0
  5  6  1  0
  6  7  2  0
  6  8  2  0
  6  9  1  0
  9 10  1  0
 10 11  2  0
 11 12  1  0
 12 13  2  0
 13 14  1  0
 14 15  1  0
 15 16  2  0
 16 17  1  0
 17 18  2  0
 17 19  1  0
 19 20  1  0
 20 21  1  0
 21 22  1  0
 22 23  1  0
 23 24  2  0
 23 25  1  0
 25 26  1  0
 26 27  2  0
 16 28  1  0
 28 29  2  0
  5 30  1  0
 30 31  2  0
 31  3  1  0
 29 10  1  0
 28 13  1  0
 26 20  1  0
  1 32  1  0
  1 33  1  0
  1 34  1  0
  2 35  1  0
  2 36  1  0
  4 37  1  0
 11 38  1  0
 12 39  1  0
 15 40  1  0
 19 41  1  0
 20 42  1  1
 21 43  1  0
 21 44  1  0
 22 45  1  0
 22 46  1  0
 25 47  1  0
 29 48  1  0
 30 49  1  0
M  END
>  <meeko>  (909) 
{"is_sidechain": [true], "free_energy": -11.18, "intermolecular_energy": 0.0, "internal_energy": -11.18, "cluster_size": 14, "cluster_id": 1, "rank_in_cluster": 1}

>  <_RMSD_MCS_to_ref>  (909) 
0.9508452380207133

$$$$
ligand
     RDKit          3D

 65 69  0  0  0  0  0  0  0  0999 V2000
   24.8540    9.4020    7.6050 C   0  0  0  0  0  0  0  0  0  0  0  0
   25.5230   10.7550    7.4270 C   0  0  0  0  0  0  0  0  0  0  0  0
   24.7180   11.6770    6.5810 C   0  0  0  0  0  0  0  0  0  0  0  0
   24.5760   11.6900    5.2070 C   0  0  0  0  0  0  0  0  0  0  0  0
   23.7330   12.7370    4.9660 N   0  0  0  0  0  0  0  0  0  0  0  0
   23.4320   13.4310    3.4620 S   0  0  0  0  0  6  0  0  0  0  0  0
   23.8710   12.4630    2.4770 O   0  0  0  0  0  0  0  0  0  0  0  0
   22.0700   13.9210    3.5260 O   0  0  0  0  0  0  0  0  0  0  0  0
   24.5450   14.8100    3.4370 C   0  0  0  0  0  0  0  0  0  0  0  0
   24.4810   15.7420    2.4040 C   0  0  0  0  0  0  0  0  0  0  0  0
   25.3070   16.8650    2.4460 C   0  0  0  0  0  0  0  0  0  0  0  0
   26.1850   17.0730    3.5230 C   0  0  0  0  0  0  0  0  0  0  0  0
   26.2700   16.1110    4.5470 C   0  0  0  0  0  0  0  0  0  0  0  0
   25.4530   14.9700    4.4860 C   0  0  0  0  0  0  0  0  0  0  0  0
   27.1820   16.2990    5.7530 C   0  0  2  0  0  0  0  0  0  0  0  0
   26.4080   16.3740    7.0830 C   0  0  0  0  0  0  0  0  0  0  0  0
   25.2550   15.9480    7.1410 O   0  0  0  0  0  0  0  0  0  0  0  0
   27.1230   16.9200    8.1350 N   0  0  0  0  0  0  0  0  0  0  0  0
   26.6810   17.1490    9.4530 C   0  0  0  0  0  0  0  0  0  0  0  0
   27.3690   18.1150   10.1960 C   0  0  0  0  0  0  0  0  0  0  0  0
   26.9900   18.4120   11.5100 C   0  0  0  0  0  0  0  0  0  0  0  0
   25.9160   17.7460   12.1120 C   0  0  0  0  0  0  0  0  0  0  0  0
   25.5010   18.0980   13.5300 C   0  0  1  0  0  0  0  0  0  0  0  0
   26.2990   17.2660   14.5410 C   0  0  0  0  0  0  0  0  0  0  0  0
   25.8490   17.6000   15.9530 C   0  0  0  0  0  0  0  0  0  0  0  0
   25.9940   19.0750   16.2340 C   0  0  0  0  0  0  0  0  0  0  0  0
   26.1170   19.5180   17.3720 O   0  0  0  0  0  0  0  0  0  0  0  0
   25.9100   19.9130   15.1520 N   0  0  0  0  0  0  0  0  0  0  0  0
   25.6250   19.5880   13.8460 C   0  0  0  0  0  0  0  0  0  0  0  0
   25.4220   20.4820   13.0260 O   0  0  0  0  0  0  0  0  0  0  0  0
   25.2330   16.7760   11.3640 C   0  0  0  0  0  0  0  0  0  0  0  0
   25.6120   16.4820   10.0490 C   0  0  0  0  0  0  0  0  0  0  0  0
   28.1480   17.4870    5.6300 C   0  0  0  0  0  0  0  0  0  0  0  0
   27.5240   18.6860    4.9280 C   0  0  0  0  0  0  0  0  0  0  0  0
   27.0590   18.3030    3.5260 C   0  0  0  0  0  0  0  0  0  0  0  0
   23.4210   13.3360    6.1460 C   0  0  0  0  0  0  0  0  0  0  0  0
   23.9960   12.7090    7.1500 N   0  0  0  0  0  0  0  0  0  0  0  0
   24.7464    9.1845    8.6779 H   0  0  0  0  0  0  0  0  0  0  0  0
   23.8606    9.4192    7.1330 H   0  0  0  0  0  0  0  0  0  0  0  0
   25.4708    8.6230    7.1330 H   0  0  0  0  0  0  0  0  0  0  0  0
   25.6616   11.2139    8.4171 H   0  0  0  0  0  0  0  0  0  0  0  0
   26.4861   10.5899    6.9218 H   0  0  0  0  0  0  0  0  0  0  0  0
   25.0369   11.0116    4.4740 H   0  0  0  0  0  0  0  0  0  0  0  0
   23.7864   15.5940    1.5640 H   0  0  0  0  0  0  0  0  0  0  0  0
   25.2706   17.5970    1.6257 H   0  0  0  0  0  0  0  0  0  0  0  0
   25.5287   14.1995    5.2675 H   0  0  0  0  0  0  0  0  0  0  0  0
   27.7978   15.3876    5.7639 H   0  0  0  0  0  0  0  0  0  0  0  0
   28.0951   17.1915    7.9295 H   0  0  0  0  0  0  0  0  0  0  0  0
   28.2178   18.6472    9.7417 H   0  0  0  0  0  0  0  0  0  0  0  0
   27.5420   19.1770   12.0758 H   0  0  0  0  0  0  0  0  0  0  0  0
   24.4319   17.8528   13.6125 H   0  0  0  0  0  0  0  0  0  0  0  0
   26.1303   16.1964   14.3475 H   0  0  0  0  0  0  0  0  0  0  0  0
   27.3693   17.4976   14.4370 H   0  0  0  0  0  0  0  0  0  0  0  0
   24.7935   17.3138   16.0709 H   0  0  0  0  0  0  0  0  0  0  0  0
   26.4813   17.0452   16.6619 H   0  0  0  0  0  0  0  0  0  0  0  0
   26.0818   20.9109   15.3407 H   0  0  0  0  0  0  0  0  0  0  0  0
   24.3871   16.2384   11.8173 H   0  0  0  0  0  0  0  0  0  0  0  0
   25.0613   15.7178    9.4809 H   0  0  0  0  0  0  0  0  0  0  0  0
   28.4583   17.7935    6.6399 H   0  0  0  0  0  0  0  0  0  0  0  0
   29.0034   17.1563    5.0226 H   0  0  0  0  0  0  0  0  0  0  0  0
   26.6609   19.0383    5.5119 H   0  0  0  0  0  0  0  0  0  0  0  0
   28.2782   19.4826    4.8471 H   0  0  0  0  0  0  0  0  0  0  0  0
   26.4882   19.1423    3.1021 H   0  0  0  0  0  0  0  0  0  0  0  0
   27.9537   18.0787    2.9267 H   0  0  0  0  0  0  0  0  0  0  0  0
   22.7771   14.2221    6.2474 H   0  0  0  0  0  0  0  0  0  0  0  0
  1  2  1  0
  2  3  1  0
  3  4  2  0
  4  5  1  0
  5  6  1  0
  6  7  2  0
  6  8  2  0
  6  9  1  0
  9 10  2  0
 10 11  1  0
 11 12  2  0
 12 13  1  0
 13 14  2  0
 13 15  1  0
 15 16  1  0
 16 17  2  0
 16 18  1  0
 18 19  1  0
 19 20  2  0
 20 21  1  0
 21 22  2  0
 22 23  1  0
 23 24  1  0
 24 25  1  0
 25 26  1  0
 26 27  2  0
 26 28  1  0
 28 29  1  0
 29 30  2  0
 22 31  1  0
 31 32  2  0
 15 33  1  0
 33 34  1  0
 34 35  1  0
  5 36  1  0
 36 37  2  0
 37  3  1  0
 14  9  1  0
 32 19  1  0
 35 12  1  0
 29 23  1  0
  1 38  1  0
  1 39  1  0
  1 40  1  0
  2 41  1  0
  2 42  1  0
  4 43  1  0
 10 44  1  0
 11 45  1  0
 14 46  1  0
 15 47  1  1
 18 48  1  0
 20 49  1  0
 21 50  1  0
 23 51  1  6
 24 52  1  0
 24 53  1  0
 25 54  1  0
 25 55  1  0
 28 56  1  0
 31 57  1  0
 32 58  1  0
 33 59  1  0
 33 60  1  0
 34 61  1  0
 34 62  1  0
 35 63  1  0
 35 64  1  0
 36 65  1  0
M  END
>  <meeko>  (910) 
{"is_sidechain": [true], "free_energy": -11.17, "intermolecular_energy": 0.0, "internal_energy": -11.17, "cluster_size": 19, "cluster_id": 1, "rank_in_cluster": 1}

>  <_RMSD_MCS_to_ref>  (910) 
1.2388713109116696

$$$$
ligand
     RDKit          3D

 47 50  0  0  0  0  0  0  0  0999 V2000
   24.8540    9.4020    7.6050 C   0  0  0  0  0  0  0  0  0  0  0  0
   25.5230   10.7550    7.4270 C   0  0  0  0  0  0  0  0  0  0  0  0
   24.6440   11.8860    7.8330 C   0  0  0  0  0  0  0  0  0  0  0  0
   24.8520   12.8330    8.8190 C   0  0  0  0  0  0  0  0  0  0  0  0
   23.7310   13.6070    8.7780 N   0  0  0  0  0  0  0  0  0  0  0  0
   23.4330   14.9700    9.7260 S   0  0  0  0  0  6  0  0  0  0  0  0
   22.2840   14.5980   10.5360 O   0  0  0  0  0  0  0  0  0  0  0  0
   23.3550   16.0450    8.7550 O   0  0  0  0  0  0  0  0  0  0  0  0
   24.7570   15.1810   10.6520 O   0  0  0  0  0  0  0  0  0  0  0  0
   25.7880   15.8870   10.0960 C   0  0  0  0  0  0  0  0  0  0  0  0
   26.1020   15.5220    8.8320 N   0  0  0  0  0  0  0  0  0  0  0  0
   27.1170   16.1870    8.2420 C   0  0  0  0  0  0  0  0  0  0  0  0
   27.8380   17.1930    8.8610 C   0  0  0  0  0  0  0  0  0  0  0  0
   27.5050   17.5400   10.1700 C   0  0  0  0  0  0  0  0  0  0  0  0
   26.4630   16.8740   10.8210 C   0  0  0  0  0  0  0  0  0  0  0  0
   26.0980   17.1940   12.1830 C   0  0  0  0  0  0  0  0  0  0  0  0
   25.8040   18.4380   12.6930 C   0  0  0  0  0  0  0  0  0  0  0  0
   25.4540   18.1850   13.9900 N   0  0  0  0  0  0  0  0  0  0  0  0
   24.9880   19.1270   14.9880 C   0  0  1  0  0  0  0  0  0  0  0  0
   25.2330   18.6920   16.4350 C   0  0  0  0  0  0  0  0  0  0  0  0
   26.6720   18.9120   16.8780 C   0  0  0  0  0  0  0  0  0  0  0  0
   27.1420   20.3150   16.5890 C   0  0  0  0  0  0  0  0  0  0  0  0
   28.0100   20.8710   17.2550 O   0  0  0  0  0  0  0  0  0  0  0  0
   26.5740   20.9450   15.5100 N   0  0  0  0  0  0  0  0  0  0  0  0
   25.5460   20.5060   14.7130 C   0  0  0  0  0  0  0  0  0  0  0  0
   25.1080   21.2200   13.8100 O   0  0  0  0  0  0  0  0  0  0  0  0
   25.5420   16.8720   14.2670 N   0  0  0  0  0  0  0  0  0  0  0  0
   25.9280   16.2540   13.1620 N   0  0  0  0  0  0  0  0  0  0  0  0
   22.9290   13.1810    7.7690 C   0  0  0  0  0  0  0  0  0  0  0  0
   23.4420   12.1160    7.1880 N   0  0  0  0  0  0  0  0  0  0  0  0
   24.7464    9.1845    8.6779 H   0  0  0  0  0  0  0  0  0  0  0  0
   23.8606    9.4192    7.1330 H   0  0  0  0  0  0  0  0  0  0  0  0
   25.4708    8.6230    7.1330 H   0  0  0  0  0  0  0  0  0  0  0  0
   26.4356   10.7802    8.0406 H   0  0  0  0  0  0  0  0  0  0  0  0
   25.7498   10.8765    6.3575 H   0  0  0  0  0  0  0  0  0  0  0  0
   25.7222   12.9376    9.4837 H   0  0  0  0  0  0  0  0  0  0  0  0
   27.3865   15.9142    7.2110 H   0  0  0  0  0  0  0  0  0  0  0  0
   28.6547   17.7069    8.3329 H   0  0  0  0  0  0  0  0  0  0  0  0
   28.0607   18.3353   10.6884 H   0  0  0  0  0  0  0  0  0  0  0  0
   25.8418   19.4090   12.1774 H   0  0  0  0  0  0  0  0  0  0  0  0
   23.8926   19.1561   14.8915 H   0  0  0  0  0  0  0  0  0  0  0  0
   24.5694   19.2712   17.0939 H   0  0  0  0  0  0  0  0  0  0  0  0
   25.0271   17.6132   16.4973 H   0  0  0  0  0  0  0  0  0  0  0  0
   26.7425   18.7294   17.9604 H   0  0  0  0  0  0  0  0  0  0  0  0
   27.3116   18.2160   16.3154 H   0  0  0  0  0  0  0  0  0  0  0  0
   26.9695   21.8645   15.2672 H   0  0  0  0  0  0  0  0  0  0  0  0
   21.9822   13.6588    7.4771 H   0  0  0  0  0  0  0  0  0  0  0  0
  1  2  1  0
  2  3  1  0
  3  4  2  0
  4  5  1  0
  5  6  1  0
  6  7  2  0
  6  8  2  0
  6  9  1  0
  9 10  1  0
 10 11  2  0
 11 12  1  0
 12 13  2  0
 13 14  1  0
 14 15  2  0
 15 16  1  0
 16 17  2  0
 17 18  1  0
 18 19  1  0
 19 20  1  0
 20 21  1  0
 21 22  1  0
 22 23  2  0
 22 24  1  0
 24 25  1  0
 25 26  2  0
 18 27  1  0
 27 28  2  0
  5 29  1  0
 29 30  2  0
 30  3  1  0
 15 10  1  0
 28 16  1  0
 25 19  1  0
  1 31  1  0
  1 32  1  0
  1 33  1  0
  2 34  1  0
  2 35  1  0
  4 36  1  0
 12 37  1  0
 13 38  1  0
 14 39  1  0
 17 40  1  0
 19 41  1  1
 20 42  1  0
 20 43  1  0
 21 44  1  0
 21 45  1  0
 24 46  1  0
 29 47  1  0
M  END
>  <meeko>  (911) 
{"is_sidechain": [true], "free_energy": -11.17, "intermolecular_energy": 0.0, "internal_energy": -11.17, "cluster_size": 4, "cluster_id": 1, "rank_in_cluster": 1}

>  <_RMSD_MCS_to_ref>  (911) 
0.8315746108037043

$$$$
ligand
     RDKit          3D

 54 58  0  0  0  0  0  0  0  0999 V2000
   24.8540    9.4020    7.6050 C   0  0  0  0  0  0  0  0  0  0  0  0
   25.5230   10.7550    7.4270 C   0  0  0  0  0  0  0  0  0  0  0  0
   25.2710   11.3360    6.0790 C   0  0  0  0  0  0  0  0  0  0  0  0
   24.4170   12.3600    5.7210 C   0  0  0  0  0  0  0  0  0  0  0  0
   24.5650   12.4600    4.3660 N   0  0  0  0  0  0  0  0  0  0  0  0
   23.9380   13.6840    3.3940 S   0  0  0  0  0  6  0  0  0  0  0  0
   22.5710   13.8540    3.8530 O   0  0  0  0  0  0  0  0  0  0  0  0
   24.2280   13.2620    2.0350 O   0  0  0  0  0  0  0  0  0  0  0  0
   24.7950   15.0150    3.7420 O   0  0  0  0  0  0  0  0  0  0  0  0
   24.7060   15.6080    4.9400 C   0  0  0  0  0  0  0  0  0  0  0  0
   24.8190   15.0970    6.2430 C   0  0  0  0  0  0  0  0  0  0  0  0
   24.6370   16.1890    7.0750 C   0  0  0  0  0  0  0  0  0  0  0  0
   24.6290   16.3060    8.5330 C   0  0  0  0  0  0  0  0  0  0  0  0
   23.5600   15.7520    9.2800 C   0  0  0  0  0  0  0  0  0  0  0  0
   23.5080   15.8450   10.6800 C   0  0  0  0  0  0  0  0  0  0  0  0
   24.5420   16.4940   11.3260 C   0  0  0  0  0  0  0  0  0  0  0  0
   25.5930   17.0310   10.5910 C   0  0  0  0  0  0  0  0  0  0  0  0
   25.6680   16.9580    9.2110 C   0  0  0  0  0  0  0  0  0  0  0  0
   26.5340   17.6540   11.5270 C   0  0  0  0  0  0  0  0  0  0  0  0
   27.5320   18.2670   11.2040 O   0  0  0  0  0  0  0  0  0  0  0  0
   26.0520   17.4070   12.8040 N   0  0  0  0  0  0  0  0  0  0  0  0
   26.5880   18.0940   13.9730 C   0  0  2  0  0  0  0  0  0  0  0  0
   26.0070   17.5620   15.2800 C   0  0  0  0  0  0  0  0  0  0  0  0
   26.6750   18.2640   16.4520 C   0  0  0  0  0  0  0  0  0  0  0  0
   26.5350   19.7640   16.3410 C   0  0  0  0  0  0  0  0  0  0  0  0
   26.3830   20.4850   17.3230 O   0  0  0  0  0  0  0  0  0  0  0  0
   26.6040   20.2950   15.0780 N   0  0  0  0  0  0  0  0  0  0  0  0
   26.3610   19.6140   13.9080 C   0  0  0  0  0  0  0  0  0  0  0  0
   25.9820   20.2170   12.9050 O   0  0  0  0  0  0  0  0  0  0  0  0
   24.7470   16.7590   12.7810 C   0  0  0  0  0  0  0  0  0  0  0  0
   24.4220   17.2450    6.2190 N   0  0  0  0  0  0  0  0  0  0  0  0
   24.4650   16.9150    4.9170 N   0  0  0  0  0  0  0  0  0  0  0  0
   25.5250   11.5890    3.9590 C   0  0  0  0  0  0  0  0  0  0  0  0
   25.9540   10.8680    4.9740 N   0  0  0  0  0  0  0  0  0  0  0  0
   24.7464    9.1845    8.6779 H   0  0  0  0  0  0  0  0  0  0  0  0
   23.8606    9.4192    7.1330 H   0  0  0  0  0  0  0  0  0  0  0  0
   25.4708    8.6230    7.1330 H   0  0  0  0  0  0  0  0  0  0  0  0
   25.1326   11.4458    8.1888 H   0  0  0  0  0  0  0  0  0  0  0  0
   26.6082   10.6111    7.5344 H   0  0  0  0  0  0  0  0  0  0  0  0
   23.7666   12.9582    6.3761 H   0  0  0  0  0  0  0  0  0  0  0  0
   25.0106   14.0550    6.5388 H   0  0  0  0  0  0  0  0  0  0  0  0
   22.7480   15.2345    8.7481 H   0  0  0  0  0  0  0  0  0  0  0  0
   22.6688   15.4138   11.2455 H   0  0  0  0  0  0  0  0  0  0  0  0
   26.5153   17.3973    8.6642 H   0  0  0  0  0  0  0  0  0  0  0  0
   27.6690   17.8909   13.9580 H   0  0  0  0  0  0  0  0  0  0  0  0
   24.9243   17.7544   15.3056 H   0  0  0  0  0  0  0  0  0  0  0  0
   26.1876   16.4791   15.3487 H   0  0  0  0  0  0  0  0  0  0  0  0
   26.2041   17.9278   17.3875 H   0  0  0  0  0  0  0  0  0  0  0  0
   27.7458   18.0123   16.4449 H   0  0  0  0  0  0  0  0  0  0  0  0
   26.8599   21.2896   14.9991 H   0  0  0  0  0  0  0  0  0  0  0  0
   24.7583   15.8224   13.3577 H   0  0  0  0  0  0  0  0  0  0  0  0
   23.9485   17.3661   13.2324 H   0  0  0  0  0  0  0  0  0  0  0  0
   24.2437   18.2047    6.5477 H   0  0  0  0  0  0  0  0  0  0  0  0
   25.8925   11.4987    2.9261 H   0  0  0  0  0  0  0  0  0  0  0  0
  1  2  1  0
  2  3  1  0
  3  4  2  0
  4  5  1  0
  5  6  1  0
  6  7  2  0
  6  8  2  0
  6  9  1  0
  9 10  1  0
 10 11  1  0
 11 12  2  0
 12 13  1  0
 13 14  2  0
 14 15  1  0
 15 16  2  0
 16 17  1  0
 17 18  2  0
 17 19  1  0
 19 20  2  0
 19 21  1  0
 21 22  1  0
 22 23  1  0
 23 24  1  0
 24 25  1  0
 25 26  2  0
 25 27  1  0
 27 28  1  0
 28 29  2  0
 21 30  1  0
 12 31  1  0
 31 32  1  0
  5 33  1  0
 33 34  2  0
 34  3  1  0
 32 10  2  0
 18 13  1  0
 28 22  1  0
 30 16  1  0
  1 35  1  0
  1 36  1  0
  1 37  1  0
  2 38  1  0
  2 39  1  0
  4 40  1  0
 11 41  1  0
 14 42  1  0
 15 43  1  0
 18 44  1  0
 22 45  1  1
 23 46  1  0
 23 47  1  0
 24 48  1  0
 24 49  1  0
 27 50  1  0
 30 51  1  0
 30 52  1  0
 31 53  1  0
 33 54  1  0
M  END
>  <meeko>  (912) 
{"is_sidechain": [true], "free_energy": -11.17, "intermolecular_energy": 0.0, "internal_energy": -11.17, "cluster_size": 20, "cluster_id": 1, "rank_in_cluster": 1}

>  <_RMSD_MCS_to_ref>  (912) 
1.161169429689071

$$$$
ligand
     RDKit          3D

 53 57  0  0  0  0  0  0  0  0999 V2000
   24.8540    9.4020    7.6050 C   0  0  0  0  0  0  0  0  0  0  0  0
   25.5230   10.7550    7.4270 C   0  0  0  0  0  0  0  0  0  0  0  0
   24.8120   11.6080    6.4350 C   0  0  0  0  0  0  0  0  0  0  0  0
   25.2820   12.1440    5.2540 C   0  0  0  0  0  0  0  0  0  0  0  0
   24.2050   12.8070    4.7350 N   0  0  0  0  0  0  0  0  0  0  0  0
   24.2270   13.7650    3.3470 S   0  0  0  0  0  6  0  0  0  0  0  0
   25.0240   12.9970    2.4080 O   0  0  0  0  0  0  0  0  0  0  0  0
   22.8410   14.0780    3.0580 O   0  0  0  0  0  0  0  0  0  0  0  0
   25.0510   15.1300    3.6820 O   0  0  0  0  0  0  0  0  0  0  0  0
   25.5630   15.3500    4.9020 C   0  0  0  0  0  0  0  0  0  0  0  0
   24.7730   15.5880    5.9970 C   0  0  0  0  0  0  0  0  0  0  0  0
   25.6610   15.7700    7.0310 N   0  0  0  0  0  0  0  0  0  0  0  0
   25.3970   16.0460    8.3980 C   0  0  0  0  0  0  0  0  0  0  0  0
   24.2530   15.4760    9.0120 C   0  0  0  0  0  0  0  0  0  0  0  0
   23.9530   15.7210   10.3590 C   0  0  0  0  0  0  0  0  0  0  0  0
   24.8050   16.5370   11.0800 C   0  0  0  0  0  0  0  0  0  0  0  0
   25.9250   17.0930   10.4650 C   0  0  0  0  0  0  0  0  0  0  0  0
   26.2530   16.8710    9.1390 C   0  0  0  0  0  0  0  0  0  0  0  0
   26.6440   17.8890   11.4640 C   0  0  0  0  0  0  0  0  0  0  0  0
   27.7060   18.4490   11.2710 O   0  0  0  0  0  0  0  0  0  0  0  0
   25.9050   17.8320   12.6320 N   0  0  0  0  0  0  0  0  0  0  0  0
   26.4030   18.3540   13.9020 C   0  0  2  0  0  0  0  0  0  0  0  0
   26.0150   17.4330   15.0590 C   0  0  0  0  0  0  0  0  0  0  0  0
   26.6530   17.9260   16.3470 C   0  0  0  0  0  0  0  0  0  0  0  0
   26.2730   19.3590   16.6300 C   0  0  0  0  0  0  0  0  0  0  0  0
   26.1460   19.7940   17.7710 O   0  0  0  0  0  0  0  0  0  0  0  0
   26.1070   20.1760   15.5410 N   0  0  0  0  0  0  0  0  0  0  0  0
   25.9690   19.7920   14.2260 C   0  0  0  0  0  0  0  0  0  0  0  0
   25.5510   20.5940   13.3940 O   0  0  0  0  0  0  0  0  0  0  0  0
   24.7380   16.9640   12.5100 C   0  0  0  0  0  0  0  0  0  0  0  0
   26.9280   15.6560    6.5570 N   0  0  0  0  0  0  0  0  0  0  0  0
   26.8710   15.3960    5.2590 N   0  0  0  0  0  0  0  0  0  0  0  0
   23.1660   12.7160    5.6020 C   0  0  0  0  0  0  0  0  0  0  0  0
   23.4960   11.9740    6.6400 N   0  0  0  0  0  0  0  0  0  0  0  0
   24.7464    9.1845    8.6779 H   0  0  0  0  0  0  0  0  0  0  0  0
   23.8606    9.4192    7.1330 H   0  0  0  0  0  0  0  0  0  0  0  0
   25.4708    8.6230    7.1330 H   0  0  0  0  0  0  0  0  0  0  0  0
   25.5352   11.2744    8.3966 H   0  0  0  0  0  0  0  0  0  0  0  0
   26.5428   10.5809    7.0532 H   0  0  0  0  0  0  0  0  0  0  0  0
   26.2923   12.0577    4.8275 H   0  0  0  0  0  0  0  0  0  0  0  0
   23.6744   15.6251    6.0390 H   0  0  0  0  0  0  0  0  0  0  0  0
   23.5885   14.8294    8.4201 H   0  0  0  0  0  0  0  0  0  0  0  0
   23.0639   15.2762   10.8297 H   0  0  0  0  0  0  0  0  0  0  0  0
   27.1477   17.3231    8.6862 H   0  0  0  0  0  0  0  0  0  0  0  0
   27.4958   18.3839   13.7798 H   0  0  0  0  0  0  0  0  0  0  0  0
   24.9208   17.4297   15.1717 H   0  0  0  0  0  0  0  0  0  0  0  0
   26.3693   16.4137   14.8457 H   0  0  0  0  0  0  0  0  0  0  0  0
   26.3138   17.2934   17.1806 H   0  0  0  0  0  0  0  0  0  0  0  0
   27.7462   17.8703   16.2381 H   0  0  0  0  0  0  0  0  0  0  0  0
   26.0829   21.1887   15.7275 H   0  0  0  0  0  0  0  0  0  0  0  0
   24.8117   16.1003   13.1872 H   0  0  0  0  0  0  0  0  0  0  0  0
   23.7924   17.4581   12.7777 H   0  0  0  0  0  0  0  0  0  0  0  0
   22.1858   13.1942    5.4589 H   0  0  0  0  0  0  0  0  0  0  0  0
  1  2  1  0
  2  3  1  0
  3  4  2  0
  4  5  1  0
  5  6  1  0
  6  7  2  0
  6  8  2  0
  6  9  1  0
  9 10  1  0
 10 11  2  0
 11 12  1  0
 12 13  1  0
 13 14  2  0
 14 15  1  0
 15 16  2  0
 16 17  1  0
 17 18  2  0
 17 19  1  0
 19 20  2  0
 19 21  1  0
 21 22  1  0
 22 23  1  0
 23 24  1  0
 24 25  1  0
 25 26  2  0
 25 27  1  0
 27 28  1  0
 28 29  2  0
 21 30  1  0
 12 31  1  0
 31 32  2  0
  5 33  1  0
 33 34  2  0
 34  3  1  0
 32 10  1  0
 18 13  1  0
 28 22  1  0
 30 16  1  0
  1 35  1  0
  1 36  1  0
  1 37  1  0
  2 38  1  0
  2 39  1  0
  4 40  1  0
 11 41  1  0
 14 42  1  0
 15 43  1  0
 18 44  1  0
 22 45  1  6
 23 46  1  0
 23 47  1  0
 24 48  1  0
 24 49  1  0
 27 50  1  0
 30 51  1  0
 30 52  1  0
 33 53  1  0
M  END
>  <meeko>  (913) 
{"is_sidechain": [true], "free_energy": -11.17, "intermolecular_energy": 0.0, "internal_energy": -11.17, "cluster_size": 9, "cluster_id": 1, "rank_in_cluster": 1}

>  <_RMSD_MCS_to_ref>  (913) 
1.0981637704216365

$$$$
ligand
     RDKit          3D

 61 65  0  0  0  0  0  0  0  0999 V2000
   24.8540    9.4020    7.6050 C   0  0  0  0  0  0  0  0  0  0  0  0
   25.5230   10.7550    7.4270 C   0  0  0  0  0  0  0  0  0  0  0  0
   27.0060   10.6700    7.5370 C   0  0  0  0  0  0  0  0  0  0  0  0
   27.9150   11.6780    7.7850 C   0  0  0  0  0  0  0  0  0  0  0  0
   29.1300   11.0560    7.7450 N   0  0  0  0  0  0  0  0  0  0  0  0
   30.6210   11.7660    8.0590 S   0  0  0  0  0  6  0  0  0  0  0  0
   31.2390   11.9940    6.7660 O   0  0  0  0  0  0  0  0  0  0  0  0
   31.2250   10.9240    9.0740 O   0  0  0  0  0  0  0  0  0  0  0  0
   30.2690   13.3480    8.7720 C   0  0  0  0  0  0  0  0  0  0  0  0
   30.7430   13.6220   10.0690 C   0  0  0  0  0  0  0  0  0  0  0  0
   30.4960   14.8620   10.6600 C   0  0  0  0  0  0  0  0  0  0  0  0
   29.7610   15.7920    9.9430 C   0  0  0  0  0  0  0  0  0  0  0  0
   29.2850   15.5120    8.6650 C   0  0  0  0  0  0  0  0  0  0  0  0
   29.5520   14.3050    8.0460 C   0  0  0  0  0  0  0  0  0  0  0  0
   28.5480   16.5780    8.0810 N   0  0  0  0  0  0  0  0  0  0  0  0
   28.3900   17.5580    9.2260 C   0  0  1  0  0  0  0  0  0  0  0  0
   26.9570   17.5000    9.8130 C   0  0  0  0  0  0  0  0  0  0  0  0
   26.0010   17.9800    9.2110 O   0  0  0  0  0  0  0  0  0  0  0  0
   26.9410   16.9250   11.0680 N   0  0  0  0  0  0  0  0  0  0  0  0
   25.9220   16.9240   12.0280 C   0  0  0  0  0  0  0  0  0  0  0  0
   24.7350   16.2070   11.9150 C   0  0  0  0  0  0  0  0  0  0  0  0
   23.7500   16.3290   12.9000 C   0  0  0  0  0  0  0  0  0  0  0  0
   23.9380   17.1780   13.9910 C   0  0  0  0  0  0  0  0  0  0  0  0
   25.1230   17.9130   14.1190 C   0  0  0  0  0  0  0  0  0  0  0  0
   25.3300   18.8490   15.3000 C   0  0  1  0  0  0  0  0  0  0  0  0
   26.2850   18.1920   16.3040 C   0  0  0  0  0  0  0  0  0  0  0  0
   26.5920   19.1500   17.4400 C   0  0  0  0  0  0  0  0  0  0  0  0
   27.2340   20.4030   16.9020 C   0  0  0  0  0  0  0  0  0  0  0  0
   28.0690   21.0350   17.5420 O   0  0  0  0  0  0  0  0  0  0  0  0
   26.7830   20.8220   15.6750 N   0  0  0  0  0  0  0  0  0  0  0  0
   25.8300   20.2360   14.8750 C   0  0  0  0  0  0  0  0  0  0  0  0
   25.3970   20.8300   13.8880 O   0  0  0  0  0  0  0  0  0  0  0  0
   26.1190   17.7500   13.1410 C   0  0  0  0  0  0  0  0  0  0  0  0
   29.4050   17.1880   10.3270 C   0  0  0  0  0  0  0  0  0  0  0  0
   28.9440    9.7290    7.5290 C   0  0  0  0  0  0  0  0  0  0  0  0
   27.6580    9.4580    7.3950 N   0  0  0  0  0  0  0  0  0  0  0  0
   24.7464    9.1845    8.6779 H   0  0  0  0  0  0  0  0  0  0  0  0
   23.8606    9.4192    7.1330 H   0  0  0  0  0  0  0  0  0  0  0  0
   25.4708    8.6230    7.1330 H   0  0  0  0  0  0  0  0  0  0  0  0
   25.2638   11.1500    6.4336 H   0  0  0  0  0  0  0  0  0  0  0  0
   25.1630   11.4169    8.2284 H   0  0  0  0  0  0  0  0  0  0  0  0
   27.7078   12.7419    7.9725 H   0  0  0  0  0  0  0  0  0  0  0  0
   31.3100   12.8561   10.6185 H   0  0  0  0  0  0  0  0  0  0  0  0
   30.8742   15.0943   11.6665 H   0  0  0  0  0  0  0  0  0  0  0  0
   29.2127   14.1043    7.0191 H   0  0  0  0  0  0  0  0  0  0  0  0
   28.2045   16.6636    7.1137 H   0  0  0  0  0  0  0  0  0  0  0  0
   28.5692   18.5776    8.8541 H   0  0  0  0  0  0  0  0  0  0  0  0
   27.8011   16.4257   11.3362 H   0  0  0  0  0  0  0  0  0  0  0  0
   24.5716   15.5450   11.0519 H   0  0  0  0  0  0  0  0  0  0  0  0
   22.8185   15.7503   12.8139 H   0  0  0  0  0  0  0  0  0  0  0  0
   23.1515   17.2705   14.7544 H   0  0  0  0  0  0  0  0  0  0  0  0
   24.3541   19.0170   15.7789 H   0  0  0  0  0  0  0  0  0  0  0  0
   25.8158   17.2842   16.7111 H   0  0  0  0  0  0  0  0  0  0  0  0
   27.2225   17.9325   15.7904 H   0  0  0  0  0  0  0  0  0  0  0  0
   25.6572   19.4132   17.9566 H   0  0  0  0  0  0  0  0  0  0  0  0
   27.2844   18.6642   18.1433 H   0  0  0  0  0  0  0  0  0  0  0  0
   27.2121   21.6832   15.3074 H   0  0  0  0  0  0  0  0  0  0  0  0
   27.0746   18.2833   13.2525 H   0  0  0  0  0  0  0  0  0  0  0  0
   30.2842   17.8486   10.3020 H   0  0  0  0  0  0  0  0  0  0  0  0
   29.0138   17.2867   11.3503 H   0  0  0  0  0  0  0  0  0  0  0  0
   29.7510    8.9836    7.4733 H   0  0  0  0  0  0  0  0  0  0  0  0
  1  2  1  0
  2  3  1  0
  3  4  2  0
  4  5  1  0
  5  6  1  0
  6  7  2  0
  6  8  2  0
  6  9  1  0
  9 10  2  0
 10 11  1  0
 11 12  2  0
 12 13  1  0
 13 14  2  0
 13 15  1  0
 15 16  1  0
 16 17  1  0
 17 18  2  0
 17 19  1  0
 19 20  1  0
 20 21  2  0
 21 22  1  0
 22 23  2  0
 23 24  1  0
 24 25  1  0
 25 26  1  0
 26 27  1  0
 27 28  1  0
 28 29  2  0
 28 30  1  0
 30 31  1  0
 31 32  2  0
 24 33  2  0
 16 34  1  0
  5 35  1  0
 35 36  2  0
 36  3  1  0
 14  9  1  0
 33 20  1  0
 34 12  1  0
 31 25  1  0
  1 37  1  0
  1 38  1  0
  1 39  1  0
  2 40  1  0
  2 41  1  0
  4 42  1  0
 10 43  1  0
 11 44  1  0
 14 45  1  0
 15 46  1  0
 16 47  1  6
 19 48  1  0
 21 49  1  0
 22 50  1  0
 23 51  1  0
 25 52  1  1
 26 53  1  0
 26 54  1  0
 27 55  1  0
 27 56  1  0
 30 57  1  0
 33 58  1  0
 34 59  1  0
 34 60  1  0
 35 61  1  0
M  END
>  <meeko>  (914) 
{"is_sidechain": [true], "free_energy": -11.16, "intermolecular_energy": 0.0, "internal_energy": -11.16, "cluster_size": 6, "cluster_id": 1, "rank_in_cluster": 1}

>  <_RMSD_MCS_to_ref>  (914) 
0.8797169289038371

$$$$
ligand
     RDKit          3D

 56 60  0  0  0  0  0  0  0  0999 V2000
   24.8540    9.4020    7.6050 C   0  0  0  0  0  0  0  0  0  0  0  0
   25.5230   10.7550    7.4270 C   0  0  0  0  0  0  0  0  0  0  0  0
   25.1220   11.4190    6.1560 C   0  0  0  0  0  0  0  0  0  0  0  0
   25.0940   12.7650    5.8500 C   0  0  0  0  0  0  0  0  0  0  0  0
   24.6520   12.8080    4.5590 N   0  0  0  0  0  0  0  0  0  0  0  0
   24.7360   14.1410    3.5410 S   0  0  0  0  0  6  0  0  0  0  0  0
   23.3850   14.6680    3.4580 O   0  0  0  0  0  0  0  0  0  0  0  0
   25.4800   13.7230    2.3710 O   0  0  0  0  0  0  0  0  0  0  0  0
   25.7030   15.3130    4.4310 C   0  0  0  0  0  0  0  0  0  0  0  0
   25.2700   15.6120    5.6790 N   0  0  0  0  0  0  0  0  0  0  0  0
   25.9770   16.5330    6.3850 C   0  0  0  0  0  0  0  0  0  0  0  0
   25.4370   16.8580    7.7630 C   0  0  0  0  0  0  0  0  0  0  0  0
   24.2300   16.8450    7.9760 O   0  0  0  0  0  0  0  0  0  0  0  0
   26.4340   17.1400    8.6910 N   0  0  0  0  0  0  0  0  0  0  0  0
   26.2850   17.4940   10.0450 C   0  0  0  0  0  0  0  0  0  0  0  0
   27.0780   18.4350   10.6970 C   0  0  0  0  0  0  0  0  0  0  0  0
   26.8680   18.7260   12.0510 C   0  0  0  0  0  0  0  0  0  0  0  0
   25.8610   18.0790   12.7790 C   0  0  0  0  0  0  0  0  0  0  0  0
   25.6340   18.4370   14.2390 C   0  0  1  0  0  0  0  0  0  0  0  0
   26.6760   17.7370   15.1180 C   0  0  0  0  0  0  0  0  0  0  0  0
   26.4090   18.0510   16.5810 C   0  0  0  0  0  0  0  0  0  0  0  0
   26.4110   19.5390   16.8250 C   0  0  0  0  0  0  0  0  0  0  0  0
   26.6740   20.0250   17.9210 O   0  0  0  0  0  0  0  0  0  0  0  0
   26.0400   20.3300   15.7690 N   0  0  0  0  0  0  0  0  0  0  0  0
   25.6320   19.9410   14.5130 C   0  0  0  0  0  0  0  0  0  0  0  0
   25.2400   20.7890   13.7130 O   0  0  0  0  0  0  0  0  0  0  0  0
   25.0620   17.1380   12.1170 C   0  0  0  0  0  0  0  0  0  0  0  0
   25.2770   16.8470   10.7660 C   0  0  0  0  0  0  0  0  0  0  0  0
   27.0740   17.1990    5.9790 N   0  0  0  0  0  0  0  0  0  0  0  0
   27.4650   16.8900    4.7270 C   0  0  0  0  0  0  0  0  0  0  0  0
   28.5230   17.3530    3.9240 C   0  0  0  0  0  0  0  0  0  0  0  0
   28.5310   16.7820    2.7120 N   0  0  0  0  0  0  0  0  0  0  0  0
   27.4710   15.9520    2.7430 N   0  0  0  0  0  0  0  0  0  0  0  0
   26.8060   15.9700    3.9370 C   0  0  0  0  0  0  0  0  0  0  0  0
   24.4450   11.5400    4.1180 C   0  0  0  0  0  0  0  0  0  0  0  0
   24.7310   10.6690    5.0630 N   0  0  0  0  0  0  0  0  0  0  0  0
   24.7464    9.1845    8.6779 H   0  0  0  0  0  0  0  0  0  0  0  0
   23.8606    9.4192    7.1330 H   0  0  0  0  0  0  0  0  0  0  0  0
   25.4708    8.6230    7.1330 H   0  0  0  0  0  0  0  0  0  0  0  0
   25.2405   11.4033    8.2696 H   0  0  0  0  0  0  0  0  0  0  0  0
   26.6103   10.5918    7.3938 H   0  0  0  0  0  0  0  0  0  0  0  0
   25.3660   13.6106    6.4989 H   0  0  0  0  0  0  0  0  0  0  0  0
   27.4021   17.0826    8.3440 H   0  0  0  0  0  0  0  0  0  0  0  0
   27.8753   18.9537   10.1445 H   0  0  0  0  0  0  0  0  0  0  0  0
   27.5028   19.4732   12.5498 H   0  0  0  0  0  0  0  0  0  0  0  0
   24.6243   18.0815   14.4921 H   0  0  0  0  0  0  0  0  0  0  0  0
   26.6156   16.6500   14.9608 H   0  0  0  0  0  0  0  0  0  0  0  0
   27.6800   18.0952   14.8467 H   0  0  0  0  0  0  0  0  0  0  0  0
   25.4277   17.6418   16.8632 H   0  0  0  0  0  0  0  0  0  0  0  0
   27.2060   17.5960   17.1875 H   0  0  0  0  0  0  0  0  0  0  0  0
   26.0703   21.3458   15.9366 H   0  0  0  0  0  0  0  0  0  0  0  0
   24.2585   16.6235   12.6644 H   0  0  0  0  0  0  0  0  0  0  0  0
   24.6449   16.0995   10.2643 H   0  0  0  0  0  0  0  0  0  0  0  0
   29.2605   18.0995    4.2538 H   0  0  0  0  0  0  0  0  0  0  0  0
   27.1895   15.3626    1.9466 H   0  0  0  0  0  0  0  0  0  0  0  0
   24.0880   11.2774    3.1112 H   0  0  0  0  0  0  0  0  0  0  0  0
  1  2  1  0
  2  3  1  0
  3  4  2  0
  4  5  1  0
  5  6  1  0
  6  7  2  0
  6  8  2  0
  6  9  1  0
  9 10  2  0
 10 11  1  0
 11 12  1  0
 12 13  2  0
 12 14  1  0
 14 15  1  0
 15 16  2  0
 16 17  1  0
 17 18  2  0
 18 19  1  0
 19 20  1  0
 20 21  1  0
 21 22  1  0
 22 23  2  0
 22 24  1  0
 24 25  1  0
 25 26  2  0
 18 27  1  0
 27 28  2  0
 11 29  2  0
 29 30  1  0
 30 31  1  0
 31 32  2  0
 32 33  1  0
 33 34  1  0
  5 35  1  0
 35 36  2  0
 36  3  1  0
 34  9  1  0
 28 15  1  0
 34 30  2  0
 25 19  1  0
  1 37  1  0
  1 38  1  0
  1 39  1  0
  2 40  1  0
  2 41  1  0
  4 42  1  0
 14 43  1  0
 16 44  1  0
 17 45  1  0
 19 46  1  1
 20 47  1  0
 20 48  1  0
 21 49  1  0
 21 50  1  0
 24 51  1  0
 27 52  1  0
 28 53  1  0
 31 54  1  0
 33 55  1  0
 35 56  1  0
M  END
>  <meeko>  (915) 
{"is_sidechain": [true], "free_energy": -11.16, "intermolecular_energy": 0.0, "internal_energy": -11.16, "cluster_size": 4, "cluster_id": 2, "rank_in_cluster": 1}

>  <_RMSD_MCS_to_ref>  (915) 
0.8012284318469972

$$$$
ligand
     RDKit          3D

 56 60  0  0  0  0  0  0  0  0999 V2000
   24.8540    9.4030    7.6050 C   0  0  0  0  0  0  0  0  0  0  0  0
   25.5230   10.7540    7.4270 C   0  0  0  0  0  0  0  0  0  0  0  0
   27.0070   10.6550    7.3660 C   0  0  0  0  0  0  0  0  0  0  0  0
   27.9120   11.5980    6.9180 C   0  0  0  0  0  0  0  0  0  0  0  0
   29.1240   10.9830    7.0360 N   0  0  0  0  0  0  0  0  0  0  0  0
   30.6220   11.6210    6.6300 S   0  0  0  0  0  6  0  0  0  0  0  0
   30.3810   12.6510    5.6380 O   0  0  0  0  0  0  0  0  0  0  0  0
   31.4400   10.4580    6.3380 O   0  0  0  0  0  0  0  0  0  0  0  0
   31.2430   12.3820    8.0860 C   0  0  0  0  0  0  0  0  0  0  0  0
   32.2420   11.7440    8.8310 C   0  0  0  0  0  0  0  0  0  0  0  0
   32.7600   12.3530    9.9840 C   0  0  0  0  0  0  0  0  0  0  0  0
   32.2910   13.6030   10.3940 C   0  0  0  0  0  0  0  0  0  0  0  0
   31.3020   14.2150    9.6420 C   0  0  0  0  0  0  0  0  0  0  0  0
   30.7790   13.6130    8.5070 C   0  0  0  0  0  0  0  0  0  0  0  0
   29.8170   14.3630    7.8880 O   0  0  0  0  0  0  0  0  0  0  0  0
   29.5710   15.4880    8.7810 C   0  0  1  0  0  0  0  0  0  0  0  0
   28.2070   15.3100    9.4090 C   0  0  0  0  0  0  0  0  0  0  0  0
   27.7110   16.0330   10.3950 N   0  0  0  0  0  0  0  0  0  0  0  0
   26.3960   15.6420   10.6670 C   0  0  0  0  0  0  0  0  0  0  0  0
   25.5970   16.2830   11.7160 C   0  0  0  0  0  0  0  0  0  0  0  0
   24.4640   15.9190   12.0140 O   0  0  0  0  0  0  0  0  0  0  0  0
   26.2500   17.3100   12.3460 N   0  0  0  0  0  0  0  0  0  0  0  0
   25.6960   18.0190   13.4810 C   0  0  1  0  0  0  0  0  0  0  0  0
   25.8820   17.2340   14.7760 C   0  0  0  0  0  0  0  0  0  0  0  0
   25.3020   18.0220   15.9390 C   0  0  0  0  0  0  0  0  0  0  0  0
   25.9210   19.3950   16.0350 C   0  0  0  0  0  0  0  0  0  0  0  0
   26.0290   19.9940   17.1010 O   0  0  0  0  0  0  0  0  0  0  0  0
   26.3090   19.9780   14.8550 N   0  0  0  0  0  0  0  0  0  0  0  0
   26.3500   19.4020   13.6060 C   0  0  0  0  0  0  0  0  0  0  0  0
   26.8380   20.0180   12.6580 O   0  0  0  0  0  0  0  0  0  0  0  0
   25.9320   14.6090    9.8750 C   0  0  0  0  0  0  0  0  0  0  0  0
   27.1460   14.1030    8.7830 S   0  0  0  0  0  0  0  0  0  0  0  0
   30.6870   15.5500    9.8340 C   0  0  0  0  0  0  0  0  0  0  0  0
   28.9440    9.7350    7.5390 C   0  0  0  0  0  0  0  0  0  0  0  0
   27.6650    9.5060    7.7690 N   0  0  0  0  0  0  0  0  0  0  0  0
   24.7464    9.1857    8.6779 H   0  0  0  0  0  0  0  0  0  0  0  0
   23.8606    9.4208    7.1330 H   0  0  0  0  0  0  0  0  0  0  0  0
   25.4703    8.6236    7.1330 H   0  0  0  0  0  0  0  0  0  0  0  0
   25.1614   11.2055    6.4914 H   0  0  0  0  0  0  0  0  0  0  0  0
   25.2661   11.3704    8.3011 H   0  0  0  0  0  0  0  0  0  0  0  0
   27.7029   12.6133    6.5500 H   0  0  0  0  0  0  0  0  0  0  0  0
   32.6219   10.7624    8.5115 H   0  0  0  0  0  0  0  0  0  0  0  0
   33.5400   11.8430   10.5684 H   0  0  0  0  0  0  0  0  0  0  0  0
   32.6974   14.0898   11.2928 H   0  0  0  0  0  0  0  0  0  0  0  0
   29.5783   16.4416    8.2328 H   0  0  0  0  0  0  0  0  0  0  0  0
   27.1773   17.5906   11.9963 H   0  0  0  0  0  0  0  0  0  0  0  0
   24.6158   18.1386   13.3108 H   0  0  0  0  0  0  0  0  0  0  0  0
   25.3644   16.2668   14.6951 H   0  0  0  0  0  0  0  0  0  0  0  0
   26.9550   17.0647   14.9491 H   0  0  0  0  0  0  0  0  0  0  0  0
   24.2167   18.1277   15.7942 H   0  0  0  0  0  0  0  0  0  0  0  0
   25.5196   17.4776   16.8697 H   0  0  0  0  0  0  0  0  0  0  0  0
   26.6045   20.9631   14.9107 H   0  0  0  0  0  0  0  0  0  0  0  0
   24.9238   14.1737    9.9383 H   0  0  0  0  0  0  0  0  0  0  0  0
   31.4000   16.3611    9.6249 H   0  0  0  0  0  0  0  0  0  0  0  0
   30.3443   15.7575   10.8584 H   0  0  0  0  0  0  0  0  0  0  0  0
   29.7529    9.0140    7.7287 H   0  0  0  0  0  0  0  0  0  0  0  0
  1  2  1  0
  2  3  1  0
  3  4  2  0
  4  5  1  0
  5  6  1  0
  6  7  2  0
  6  8  2  0
  6  9  1  0
  9 10  2  0
 10 11  1  0
 11 12  2  0
 12 13  1  0
 13 14  2  0
 14 15  1  0
 15 16  1  0
 16 17  1  0
 17 18  2  0
 18 19  1  0
 19 20  1  0
 20 21  2  0
 20 22  1  0
 22 23  1  0
 23 24  1  0
 24 25  1  0
 25 26  1  0
 26 27  2  0
 26 28  1  0
 28 29  1  0
 29 30  2  0
 19 31  2  0
 31 32  1  0
 16 33  1  0
  5 34  1  0
 34 35  2  0
 35  3  1  0
 14  9  1  0
 32 17  1  0
 33 13  1  0
 29 23  1  0
  1 36  1  0
  1 37  1  0
  1 38  1  0
  2 39  1  0
  2 40  1  0
  4 41  1  0
 10 42  1  0
 11 43  1  0
 12 44  1  0
 16 45  1  6
 22 46  1  0
 23 47  1  6
 24 48  1  0
 24 49  1  0
 25 50  1  0
 25 51  1  0
 28 52  1  0
 31 53  1  0
 33 54  1  0
 33 55  1  0
 34 56  1  0
M  END
>  <meeko>  (916) 
{"is_sidechain": [true], "free_energy": -11.16, "intermolecular_energy": 0.0, "internal_energy": -11.16, "cluster_size": 11, "cluster_id": 1, "rank_in_cluster": 1}

>  <_RMSD_MCS_to_ref>  (916) 
1.55520627427861

$$$$
ligand
     RDKit          3D

 59 64  0  0  0  0  0  0  0  0999 V2000
   24.8540    9.4020    7.6050 C   0  0  0  0  0  0  0  0  0  0  0  0
   25.5230   10.7550    7.4270 C   0  0  0  0  0  0  0  0  0  0  0  0
   24.7560   11.6480    6.5150 C   0  0  0  0  0  0  0  0  0  0  0  0
   25.0120   11.9610    5.1950 C   0  0  0  0  0  0  0  0  0  0  0  0
   24.0180   12.8370    4.8590 N   0  0  0  0  0  0  0  0  0  0  0  0
   23.9610   13.7800    3.4660 S   0  0  0  0  0  6  0  0  0  0  0  0
   22.6440   14.3880    3.4760 O   0  0  0  0  0  0  0  0  0  0  0  0
   24.4230   12.9340    2.3840 O   0  0  0  0  0  0  0  0  0  0  0  0
   25.1750   15.0440    3.7330 C   0  0  0  0  0  0  0  0  0  0  0  0
   25.8910   15.5540    2.6570 C   0  0  0  0  0  0  0  0  0  0  0  0
   26.8420   16.5570    2.8640 C   0  0  0  0  0  0  0  0  0  0  0  0
   27.0550   17.0460    4.1690 C   0  0  0  0  0  0  0  0  0  0  0  0
   28.1660   18.2710    4.6500 S   0  0  0  0  0  0  0  0  0  0  0  0
   27.6980   18.1640    6.2860 C   0  0  0  0  0  0  0  0  0  0  0  0
   26.7170   17.2180    6.4880 C   0  0  0  0  0  0  0  0  0  0  0  0
   26.1450   16.9900    7.8080 C   0  0  0  0  0  0  0  0  0  0  0  0
   24.9870   16.1940    7.9560 C   0  0  0  0  0  0  0  0  0  0  0  0
   24.3810   16.0220    9.2090 C   0  0  0  0  0  0  0  0  0  0  0  0
   24.9520   16.6510   10.3010 C   0  0  0  0  0  0  0  0  0  0  0  0
   26.1040   17.4190   10.1450 C   0  0  0  0  0  0  0  0  0  0  0  0
   26.7210   17.6100    8.9230 C   0  0  0  0  0  0  0  0  0  0  0  0
   26.4650   17.9740   11.4510 C   0  0  0  0  0  0  0  0  0  0  0  0
   27.3700   18.7620   11.6420 O   0  0  0  0  0  0  0  0  0  0  0  0
   25.5610   17.4610   12.3700 N   0  0  0  0  0  0  0  0  0  0  0  0
   25.4100   17.9710   13.7270 C   0  0  1  0  0  0  0  0  0  0  0  0
   26.3040   17.2680   14.7490 C   0  0  0  0  0  0  0  0  0  0  0  0
   26.0320   17.8380   16.1330 C   0  0  0  0  0  0  0  0  0  0  0  0
   26.2360   19.3350   16.1610 C   0  0  0  0  0  0  0  0  0  0  0  0
   26.4950   19.9400   17.1970 O   0  0  0  0  0  0  0  0  0  0  0  0
   26.0380   20.0070   14.9810 N   0  0  0  0  0  0  0  0  0  0  0  0
   25.6360   19.4910   13.7700 C   0  0  0  0  0  0  0  0  0  0  0  0
   25.3930   20.2410   12.8250 O   0  0  0  0  0  0  0  0  0  0  0  0
   24.5050   16.6950   11.7240 C   0  0  0  0  0  0  0  0  0  0  0  0
   26.3430   16.5490    5.2640 C   0  0  0  0  0  0  0  0  0  0  0  0
   25.4020   15.5130    5.0320 C   0  0  0  0  0  0  0  0  0  0  0  0
   23.2210   13.0410    5.9380 C   0  0  0  0  0  0  0  0  0  0  0  0
   23.6360   12.3230    6.9610 N   0  0  0  0  0  0  0  0  0  0  0  0
   24.7464    9.1845    8.6779 H   0  0  0  0  0  0  0  0  0  0  0  0
   23.8606    9.4192    7.1330 H   0  0  0  0  0  0  0  0  0  0  0  0
   25.4708    8.6230    7.1330 H   0  0  0  0  0  0  0  0  0  0  0  0
   25.6063   11.2407    8.4104 H   0  0  0  0  0  0  0  0  0  0  0  0
   26.5128   10.5850    6.9783 H   0  0  0  0  0  0  0  0  0  0  0  0
   25.8292   11.5901    4.5589 H   0  0  0  0  0  0  0  0  0  0  0  0
   25.7095   15.1686    1.6429 H   0  0  0  0  0  0  0  0  0  0  0  0
   27.4179   16.9604    2.0181 H   0  0  0  0  0  0  0  0  0  0  0  0
   28.1300   18.7799    7.0885 H   0  0  0  0  0  0  0  0  0  0  0  0
   24.5535   15.7009    7.0735 H   0  0  0  0  0  0  0  0  0  0  0  0
   23.4775   15.4046    9.3204 H   0  0  0  0  0  0  0  0  0  0  0  0
   27.6285   18.2247    8.8304 H   0  0  0  0  0  0  0  0  0  0  0  0
   24.3729   17.7487   14.0184 H   0  0  0  0  0  0  0  0  0  0  0  0
   26.0867   16.1897   14.7467 H   0  0  0  0  0  0  0  0  0  0  0  0
   27.3600   17.4283   14.4860 H   0  0  0  0  0  0  0  0  0  0  0  0
   24.9930   17.6128   16.4152 H   0  0  0  0  0  0  0  0  0  0  0  0
   26.7366   17.3786   16.8419 H   0  0  0  0  0  0  0  0  0  0  0  0
   26.2115   21.0220   15.0045 H   0  0  0  0  0  0  0  0  0  0  0  0
   24.4335   15.6827   12.1484 H   0  0  0  0  0  0  0  0  0  0  0  0
   23.5056   17.1360   11.8532 H   0  0  0  0  0  0  0  0  0  0  0  0
   24.8485   15.0765    5.8765 H   0  0  0  0  0  0  0  0  0  0  0  0
   22.3498   13.7124    5.9558 H   0  0  0  0  0  0  0  0  0  0  0  0
  1  2  1  0
  2  3  1  0
  3  4  2  0
  4  5  1  0
  5  6  1  0
  6  7  2  0
  6  8  2  0
  6  9  1  0
  9 10  2  0
 10 11  1  0
 11 12  2  0
 12 13  1  0
 13 14  1  0
 14 15  2  0
 15 16  1  0
 16 17  2  0
 17 18  1  0
 18 19  2  0
 19 20  1  0
 20 21  2  0
 20 22  1  0
 22 23  2  0
 22 24  1  0
 24 25  1  0
 25 26  1  0
 26 27  1  0
 27 28  1  0
 28 29  2  0
 28 30  1  0
 30 31  1  0
 31 32  2  0
 24 33  1  0
 15 34  1  0
 34 35  2  0
  5 36  1  0
 36 37  2  0
 37  3  1  0
 35  9  1  0
 34 12  1  0
 21 16  1  0
 31 25  1  0
 33 19  1  0
  1 38  1  0
  1 39  1  0
  1 40  1  0
  2 41  1  0
  2 42  1  0
  4 43  1  0
 10 44  1  0
 11 45  1  0
 14 46  1  0
 17 47  1  0
 18 48  1  0
 21 49  1  0
 25 50  1  1
 26 51  1  0
 26 52  1  0
 27 53  1  0
 27 54  1  0
 30 55  1  0
 33 56  1  0
 33 57  1  0
 35 58  1  0
 36 59  1  0
M  END
>  <meeko>  (917) 
{"is_sidechain": [true], "free_energy": -11.16, "intermolecular_energy": 0.0, "internal_energy": -11.16, "cluster_size": 15, "cluster_id": 1, "rank_in_cluster": 1}

>  <_RMSD_MCS_to_ref>  (917) 
1.06404881884662

$$$$
ligand
     RDKit          3D

 61 66  0  0  0  0  0  0  0  0999 V2000
   24.8710    9.6160    7.7820 C   0  0  0  0  0  0  0  0  0  0  0  0
   25.4240   10.9650    7.3490 C   0  0  0  0  0  0  0  0  0  0  0  0
   24.9720   11.3430    5.9840 C   0  0  0  0  0  0  0  0  0  0  0  0
   24.3590   12.5080    5.5630 C   0  0  0  0  0  0  0  0  0  0  0  0
   24.1370   12.3030    4.2320 N   0  0  0  0  0  0  0  0  0  0  0  0
   23.4900   13.4290    3.1610 S   0  0  0  0  0  6  0  0  0  0  0  0
   22.1790   13.7750    3.6820 O   0  0  0  0  0  0  0  0  0  0  0  0
   23.6150   12.7800    1.8680 O   0  0  0  0  0  0  0  0  0  0  0  0
   24.4650   14.7460    3.1420 O   0  0  0  0  0  0  0  0  0  0  0  0
   25.3560   14.9430    4.1740 C   0  0  0  0  0  0  0  0  0  0  0  0
   24.8140   15.1650    5.4380 C   0  0  0  0  0  0  0  0  0  0  0  0
   25.6770   15.3860    6.5010 C   0  0  0  0  0  0  0  0  0  0  0  0
   25.2140   15.6190    7.8860 C   0  0  0  0  0  0  0  0  0  0  0  0
   24.1070   14.9140    8.4310 C   0  0  0  0  0  0  0  0  0  0  0  0
   23.6610   15.1340    9.7410 C   0  0  0  0  0  0  0  0  0  0  0  0
   24.3460   16.0620   10.4960 C   0  0  0  0  0  0  0  0  0  0  0  0
   25.4380   16.7670   10.0060 C   0  0  0  0  0  0  0  0  0  0  0  0
   25.8800   16.5560    8.7090 C   0  0  0  0  0  0  0  0  0  0  0  0
   25.9500   17.7030   11.0460 C   0  0  0  0  0  0  0  0  0  0  0  0
   25.1210   17.3830   12.2010 N   0  0  0  0  0  0  0  0  0  0  0  0
   25.1330   18.2170   13.3970 C   0  0  2  0  0  0  0  0  0  0  0  0
   25.6690   19.6290   13.1590 C   0  0  0  0  0  0  0  0  0  0  0  0
   25.5810   20.4250   14.4510 C   0  0  0  0  0  0  0  0  0  0  0  0
   26.3260   19.7380   15.5720 C   0  0  0  0  0  0  0  0  0  0  0  0
   26.7440   20.3500   16.5500 O   0  0  0  0  0  0  0  0  0  0  0  0
   26.4420   18.3730   15.4890 N   0  0  0  0  0  0  0  0  0  0  0  0
   25.9010   17.5350   14.5410 C   0  0  0  0  0  0  0  0  0  0  0  0
   25.9550   16.3150   14.6900 O   0  0  0  0  0  0  0  0  0  0  0  0
   24.1070   16.4940   11.8780 C   0  0  0  0  0  0  0  0  0  0  0  0
   23.1710   16.1280   12.5630 O   0  0  0  0  0  0  0  0  0  0  0  0
   27.0210   15.4180    6.3180 N   0  0  0  0  0  0  0  0  0  0  0  0
   27.5210   15.2160    5.0810 C   0  0  0  0  0  0  0  0  0  0  0  0
   28.8930   15.2500    4.8790 C   0  0  0  0  0  0  0  0  0  0  0  0
   29.4390   15.0600    3.6120 C   0  0  0  0  0  0  0  0  0  0  0  0
   28.5740   14.8430    2.5600 C   0  0  0  0  0  0  0  0  0  0  0  0
   27.2330   14.8030    2.7050 N   0  0  0  0  0  0  0  0  0  0  0  0
   26.7260   14.9780    3.9480 C   0  0  0  0  0  0  0  0  0  0  0  0
   24.6610   11.1050    3.8680 C   0  0  0  0  0  0  0  0  0  0  0  0
   25.1540   10.4790    4.9200 N   0  0  0  0  0  0  0  0  0  0  0  0
   24.8497    9.5640    8.8806 H   0  0  0  0  0  0  0  0  0  0  0  0
   23.8507    9.4948    7.3893 H   0  0  0  0  0  0  0  0  0  0  0  0
   25.5127    8.8135    7.3893 H   0  0  0  0  0  0  0  0  0  0  0  0
   25.0844   11.7323    8.0602 H   0  0  0  0  0  0  0  0  0  0  0  0
   26.5215   10.8921    7.3342 H   0  0  0  0  0  0  0  0  0  0  0  0
   24.1080   13.3956    6.1623 H   0  0  0  0  0  0  0  0  0  0  0  0
   23.7245   15.1650    5.5898 H   0  0  0  0  0  0  0  0  0  0  0  0
   23.5851   14.1741    7.8063 H   0  0  0  0  0  0  0  0  0  0  0  0
   22.7985   14.5879   10.1507 H   0  0  0  0  0  0  0  0  0  0  0  0
   26.7448   17.1150    8.3221 H   0  0  0  0  0  0  0  0  0  0  0  0
   27.0135   17.5177   11.2575 H   0  0  0  0  0  0  0  0  0  0  0  0
   25.8935   18.7603   10.7476 H   0  0  0  0  0  0  0  0  0  0  0  0
   24.0783   18.3323   13.6874 H   0  0  0  0  0  0  0  0  0  0  0  0
   26.7180   19.5735   12.8325 H   0  0  0  0  0  0  0  0  0  0  0  0
   25.0700   20.1238   12.3802 H   0  0  0  0  0  0  0  0  0  0  0  0
   26.0180   21.4213   14.2883 H   0  0  0  0  0  0  0  0  0  0  0  0
   24.5219   20.5060   14.7370 H   0  0  0  0  0  0  0  0  0  0  0  0
   27.0020   17.9209   16.2258 H   0  0  0  0  0  0  0  0  0  0  0  0
   29.5611   15.4301    5.7341 H   0  0  0  0  0  0  0  0  0  0  0  0
   30.5275   15.0823    3.4550 H   0  0  0  0  0  0  0  0  0  0  0  0
   28.9972   14.6956    1.5554 H   0  0  0  0  0  0  0  0  0  0  0  0
   24.6730   10.7114    2.8409 H   0  0  0  0  0  0  0  0  0  0  0  0
  1  2  1  0
  2  3  1  0
  3  4  2  0
  4  5  1  0
  5  6  1  0
  6  7  2  0
  6  8  2  0
  6  9  1  0
  9 10  1  0
 10 11  2  0
 11 12  1  0
 12 13  1  0
 13 14  2  0
 14 15  1  0
 15 16  2  0
 16 17  1  0
 17 18  2  0
 17 19  1  0
 19 20  1  0
 20 21  1  0
 21 22  1  0
 22 23  1  0
 23 24  1  0
 24 25  2  0
 24 26  1  0
 26 27  1  0
 27 28  2  0
 20 29  1  0
 29 30  2  0
 12 31  2  0
 31 32  1  0
 32 33  2  0
 33 34  1  0
 34 35  2  0
 35 36  1  0
 36 37  2  0
  5 38  1  0
 38 39  2  0
 39  3  1  0
 37 10  1  0
 18 13  1  0
 27 21  1  0
 37 32  1  0
 29 16  1  0
  1 40  1  0
  1 41  1  0
  1 42  1  0
  2 43  1  0
  2 44  1  0
  4 45  1  0
 11 46  1  0
 14 47  1  0
 15 48  1  0
 18 49  1  0
 19 50  1  0
 19 51  1  0
 21 52  1  1
 22 53  1  0
 22 54  1  0
 23 55  1  0
 23 56  1  0
 26 57  1  0
 33 58  1  0
 34 59  1  0
 35 60  1  0
 38 61  1  0
M  END
>  <meeko>  (918) 
{"is_sidechain": [true], "free_energy": -11.16, "intermolecular_energy": 0.0, "internal_energy": -11.16, "cluster_size": 3, "cluster_id": 2, "rank_in_cluster": 1}

>  <_RMSD_MCS_to_ref>  (918) 
1.850045703560633

$$$$
ligand
     RDKit          3D

 51 54  0  0  0  0  0  0  0  0999 V2000
   24.8710    9.6160    7.7820 C   0  0  0  0  0  0  0  0  0  0  0  0
   25.4240   10.9650    7.3490 C   0  0  0  0  0  0  0  0  0  0  0  0
   26.4800   11.4610    8.2730 C   0  0  0  0  0  0  0  0  0  0  0  0
   27.2360   12.6140    8.1920 C   0  0  0  0  0  0  0  0  0  0  0  0
   28.0180   12.5820    9.3120 N   0  0  0  0  0  0  0  0  0  0  0  0
   29.3090   13.6140    9.6410 S   0  0  0  0  0  6  0  0  0  0  0  0
   29.7790   13.2050   10.9520 O   0  0  0  0  0  0  0  0  0  0  0  0
   30.1600   13.5260    8.4690 O   0  0  0  0  0  0  0  0  0  0  0  0
   28.6730   15.1100    9.7370 O   0  0  0  0  0  0  0  0  0  0  0  0
   27.3270   15.3520    9.6430 C   0  0  0  0  0  0  0  0  0  0  0  0
   26.5670   15.2590    8.4850 C   0  0  0  0  0  0  0  0  0  0  0  0
   25.1990   15.5310    8.5310 C   0  0  0  0  0  0  0  0  0  0  0  0
   24.5670   15.9000    9.7310 C   0  0  0  0  0  0  0  0  0  0  0  0
   23.1930   16.1620    9.7420 C   0  0  0  0  0  0  0  0  0  0  0  0
   22.5840   16.5210   10.9270 C   0  0  0  0  0  0  0  0  0  0  0  0
   23.2420   16.6370   12.0930 N   0  0  0  0  0  0  0  0  0  0  0  0
   24.5900   16.3840   12.0800 C   0  0  0  0  0  0  0  0  0  0  0  0
   25.2240   16.5610   13.4460 C   0  0  0  0  0  0  0  0  0  0  0  0
   25.5800   15.6360   14.1640 O   0  0  0  0  0  0  0  0  0  0  0  0
   25.3920   17.8800   13.8150 N   0  0  0  0  0  0  0  0  0  0  0  0
   26.1370   18.2780   14.9950 C   0  0  2  0  0  0  0  0  0  0  0  0
   25.2300   18.4480   16.2100 C   0  0  0  0  0  0  0  0  0  0  0  0
   26.0610   18.8800   17.4070 C   0  0  0  0  0  0  0  0  0  0  0  0
   26.8400   20.1390   17.1090 C   0  0  0  0  0  0  0  0  0  0  0  0
   27.0850   20.9800   17.9690 O   0  0  0  0  0  0  0  0  0  0  0  0
   27.2970   20.2880   15.8250 N   0  0  0  0  0  0  0  0  0  0  0  0
   26.8570   19.6030   14.7190 C   0  0  0  0  0  0  0  0  0  0  0  0
   27.0630   20.0380   13.5870 O   0  0  0  0  0  0  0  0  0  0  0  0
   25.3180   16.0040   10.9240 C   0  0  0  0  0  0  0  0  0  0  0  0
   26.7080   15.7180   10.8440 C   0  0  0  0  0  0  0  0  0  0  0  0
   27.7940   11.4200    9.9760 C   0  0  0  0  0  0  0  0  0  0  0  0
   26.8420   10.7260    9.3860 N   0  0  0  0  0  0  0  0  0  0  0  0
   24.8497    9.5640    8.8806 H   0  0  0  0  0  0  0  0  0  0  0  0
   23.8507    9.4948    7.3893 H   0  0  0  0  0  0  0  0  0  0  0  0
   25.5127    8.8135    7.3893 H   0  0  0  0  0  0  0  0  0  0  0  0
   25.8532   10.8652    6.3411 H   0  0  0  0  0  0  0  0  0  0  0  0
   24.5964   11.6895    7.3610 H   0  0  0  0  0  0  0  0  0  0  0  0
   27.2137   13.3826    7.4054 H   0  0  0  0  0  0  0  0  0  0  0  0
   27.0412   14.9720    7.5349 H   0  0  0  0  0  0  0  0  0  0  0  0
   24.6032   15.4551    7.6094 H   0  0  0  0  0  0  0  0  0  0  0  0
   22.6044   16.0827    8.8161 H   0  0  0  0  0  0  0  0  0  0  0  0
   21.5027   16.7229   10.9167 H   0  0  0  0  0  0  0  0  0  0  0  0
   24.9705   18.6136   13.2276 H   0  0  0  0  0  0  0  0  0  0  0  0
   26.8618   17.4813   15.2185 H   0  0  0  0  0  0  0  0  0  0  0  0
   24.4700   19.2139   15.9958 H   0  0  0  0  0  0  0  0  0  0  0  0
   24.7345   17.4918   16.4339 H   0  0  0  0  0  0  0  0  0  0  0  0
   25.3913   19.0664   18.2595 H   0  0  0  0  0  0  0  0  0  0  0  0
   26.7755   18.0771   17.6414 H   0  0  0  0  0  0  0  0  0  0  0  0
   28.0435   20.9817   15.6752 H   0  0  0  0  0  0  0  0  0  0  0  0
   27.3180   15.7866   11.7568 H   0  0  0  0  0  0  0  0  0  0  0  0
   28.3323   11.1017   10.8809 H   0  0  0  0  0  0  0  0  0  0  0  0
  1  2  1  0
  2  3  1  0
  3  4  2  0
  4  5  1  0
  5  6  1  0
  6  7  2  0
  6  8  2  0
  6  9  1  0
  9 10  1  0
 10 11  2  0
 11 12  1  0
 12 13  2  0
 13 14  1  0
 14 15  2  0
 15 16  1  0
 16 17  2  0
 17 18  1  0
 18 19  2  0
 18 20  1  0
 20 21  1  0
 21 22  1  0
 22 23  1  0
 23 24  1  0
 24 25  2  0
 24 26  1  0
 26 27  1  0
 27 28  2  0
 17 29  1  0
 29 30  2  0
  5 31  1  0
 31 32  2  0
 32  3  1  0
 30 10  1  0
 29 13  1  0
 27 21  1  0
  1 33  1  0
  1 34  1  0
  1 35  1  0
  2 36  1  0
  2 37  1  0
  4 38  1  0
 11 39  1  0
 12 40  1  0
 14 41  1  0
 15 42  1  0
 20 43  1  0
 21 44  1  1
 22 45  1  0
 22 46  1  0
 23 47  1  0
 23 48  1  0
 26 49  1  0
 30 50  1  0
 31 51  1  0
M  END
>  <meeko>  (919) 
{"is_sidechain": [true], "free_energy": -11.16, "intermolecular_energy": 0.0, "internal_energy": -11.16, "cluster_size": 3, "cluster_id": 1, "rank_in_cluster": 1}

>  <_RMSD_MCS_to_ref>  (919) 
1.4849420115875827

$$$$
ligand
     RDKit          3D

 59 64  0  0  0  0  0  0  0  0999 V2000
   24.8540    9.4020    7.6050 C   0  0  0  0  0  0  0  0  0  0  0  0
   25.5230   10.7550    7.4270 C   0  0  0  0  0  0  0  0  0  0  0  0
   25.3100   11.3130    6.0630 C   0  0  0  0  0  0  0  0  0  0  0  0
   24.4420   12.3060    5.6560 C   0  0  0  0  0  0  0  0  0  0  0  0
   24.6480   12.3980    4.3090 N   0  0  0  0  0  0  0  0  0  0  0  0
   23.9980   13.5910    3.3060 S   0  0  0  0  0  6  0  0  0  0  0  0
   22.6860   13.8330    3.8850 O   0  0  0  0  0  0  0  0  0  0  0  0
   24.1110   13.0550    1.9620 O   0  0  0  0  0  0  0  0  0  0  0  0
   24.9990   14.9940    3.4870 C   0  0  0  0  0  0  0  0  0  0  0  0
   25.5620   15.5310    2.3830 C   0  0  0  0  0  0  0  0  0  0  0  0
   26.3760   16.7280    2.5060 C   0  0  0  0  0  0  0  0  0  0  0  0
   26.5670   17.3220    3.6970 C   0  0  0  0  0  0  0  0  0  0  0  0
   25.9760   16.7690    4.8660 C   0  0  0  0  0  0  0  0  0  0  0  0
   26.0150   17.1820    6.1130 N   0  0  0  0  0  0  0  0  0  0  0  0
   25.2940   16.2620    6.8350 C   0  0  0  0  0  0  0  0  0  0  0  0
   25.1110   16.3530    8.2770 C   0  0  0  0  0  0  0  0  0  0  0  0
   24.1150   15.5550    8.8940 C   0  0  0  0  0  0  0  0  0  0  0  0
   23.8900   15.5900   10.2780 C   0  0  0  0  0  0  0  0  0  0  0  0
   24.6700   16.4350   11.0410 C   0  0  0  0  0  0  0  0  0  0  0  0
   25.6440   17.2220   10.4320 C   0  0  0  0  0  0  0  0  0  0  0  0
   25.8920   17.2040    9.0700 C   0  0  0  0  0  0  0  0  0  0  0  0
   26.3180   18.0000   11.4760 C   0  0  0  0  0  0  0  0  0  0  0  0
   27.2690   18.7370   11.2950 O   0  0  0  0  0  0  0  0  0  0  0  0
   25.6930   17.6930   12.6730 N   0  0  0  0  0  0  0  0  0  0  0  0
   26.2240   18.1240   13.9630 C   0  0  2  0  0  0  0  0  0  0  0  0
   25.7420   17.2020   15.0850 C   0  0  0  0  0  0  0  0  0  0  0  0
   26.4100   17.5890   16.3930 C   0  0  0  0  0  0  0  0  0  0  0  0
   26.1620   19.0400   16.7250 C   0  0  0  0  0  0  0  0  0  0  0  0
   26.0610   19.4430   17.8800 O   0  0  0  0  0  0  0  0  0  0  0  0
   26.0830   19.9060   15.6650 N   0  0  0  0  0  0  0  0  0  0  0  0
   25.9170   19.5840   14.3370 C   0  0  0  0  0  0  0  0  0  0  0  0
   25.5740   20.4490   13.5350 O   0  0  0  0  0  0  0  0  0  0  0  0
   24.6590   16.6760   12.5140 C   0  0  0  0  0  0  0  0  0  0  0  0
   24.8020   15.2800    5.9990 C   0  0  0  0  0  0  0  0  0  0  0  0
   25.2180   15.6050    4.7270 N   0  0  0  0  0  0  0  0  0  0  0  0
   25.6130   11.5170    3.9430 C   0  0  0  0  0  0  0  0  0  0  0  0
   26.0390   10.8410    4.9900 N   0  0  0  0  0  0  0  0  0  0  0  0
   24.7464    9.1845    8.6779 H   0  0  0  0  0  0  0  0  0  0  0  0
   23.8606    9.4192    7.1330 H   0  0  0  0  0  0  0  0  0  0  0  0
   25.4708    8.6230    7.1330 H   0  0  0  0  0  0  0  0  0  0  0  0
   25.1066   11.4559    8.1654 H   0  0  0  0  0  0  0  0  0  0  0  0
   26.6050   10.6181    7.5705 H   0  0  0  0  0  0  0  0  0  0  0  0
   23.7443   12.8895    6.2747 H   0  0  0  0  0  0  0  0  0  0  0  0
   25.4054   15.0657    1.3986 H   0  0  0  0  0  0  0  0  0  0  0  0
   26.8449   17.1564    1.6079 H   0  0  0  0  0  0  0  0  0  0  0  0
   27.1789   18.2334    3.7668 H   0  0  0  0  0  0  0  0  0  0  0  0
   23.5011   14.8893    8.2695 H   0  0  0  0  0  0  0  0  0  0  0  0
   23.1146   14.9624   10.7416 H   0  0  0  0  0  0  0  0  0  0  0  0
   26.6751   17.8360    8.6258 H   0  0  0  0  0  0  0  0  0  0  0  0
   27.3160   18.0600   13.8475 H   0  0  0  0  0  0  0  0  0  0  0  0
   24.6511   17.2952   15.1907 H   0  0  0  0  0  0  0  0  0  0  0  0
   26.0034   16.1625   14.8378 H   0  0  0  0  0  0  0  0  0  0  0  0
   26.0058   16.9620   17.2014 H   0  0  0  0  0  0  0  0  0  0  0  0
   27.4943   17.4364   16.2884 H   0  0  0  0  0  0  0  0  0  0  0  0
   26.1560   20.9091   15.8871 H   0  0  0  0  0  0  0  0  0  0  0  0
   24.9125   15.7607   13.0689 H   0  0  0  0  0  0  0  0  0  0  0  0
   23.6766   16.9838   12.9016 H   0  0  0  0  0  0  0  0  0  0  0  0
   24.1968   14.4092    6.2912 H   0  0  0  0  0  0  0  0  0  0  0  0
   25.9867   11.3859    2.9168 H   0  0  0  0  0  0  0  0  0  0  0  0
  1  2  1  0
  2  3  1  0
  3  4  2  0
  4  5  1  0
  5  6  1  0
  6  7  2  0
  6  8  2  0
  6  9  1  0
  9 10  2  0
 10 11  1  0
 11 12  2  0
 12 13  1  0
 13 14  2  0
 14 15  1  0
 15 16  1  0
 16 17  2  0
 17 18  1  0
 18 19  2  0
 19 20  1  0
 20 21  2  0
 20 22  1  0
 22 23  2  0
 22 24  1  0
 24 25  1  0
 25 26  1  0
 26 27  1  0
 27 28  1  0
 28 29  2  0
 28 30  1  0
 30 31  1  0
 31 32  2  0
 24 33  1  0
 15 34  2  0
 34 35  1  0
  5 36  1  0
 36 37  2  0
 37  3  1  0
 35  9  1  0
 35 13  1  0
 21 16  1  0
 31 25  1  0
 33 19  1  0
  1 38  1  0
  1 39  1  0
  1 40  1  0
  2 41  1  0
  2 42  1  0
  4 43  1  0
 10 44  1  0
 11 45  1  0
 12 46  1  0
 17 47  1  0
 18 48  1  0
 21 49  1  0
 25 50  1  6
 26 51  1  0
 26 52  1  0
 27 53  1  0
 27 54  1  0
 30 55  1  0
 33 56  1  0
 33 57  1  0
 34 58  1  0
 36 59  1  0
M  END
>  <meeko>  (920) 
{"is_sidechain": [true], "free_energy": -11.15, "intermolecular_energy": 0.0, "internal_energy": -11.15, "cluster_size": 6, "cluster_id": 2, "rank_in_cluster": 1}

>  <_RMSD_MCS_to_ref>  (920) 
1.1711203088401196

$$$$
ligand
     RDKit          3D

 60 65  0  0  0  0  0  0  0  0999 V2000
   24.8710    9.6160    7.7820 C   0  0  0  0  0  0  0  0  0  0  0  0
   25.4240   10.9650    7.3490 C   0  0  0  0  0  0  0  0  0  0  0  0
   26.4920   10.8280    6.3200 C   0  0  0  0  0  0  0  0  0  0  0  0
   27.8470   11.0590    6.4440 C   0  0  0  0  0  0  0  0  0  0  0  0
   28.3470   10.7980    5.1990 N   0  0  0  0  0  0  0  0  0  0  0  0
   29.8890   11.2080    4.6480 S   0  0  0  0  0  6  0  0  0  0  0  0
   29.8200   11.0150    3.2110 O   0  0  0  0  0  0  0  0  0  0  0  0
   30.8010   10.4250    5.4630 O   0  0  0  0  0  0  0  0  0  0  0  0
   30.1130   12.8050    4.9370 O   0  0  0  0  0  0  0  0  0  0  0  0
   29.3260   13.4200    5.8810 C   0  0  0  0  0  0  0  0  0  0  0  0
   29.7200   13.4260    7.2230 C   0  0  0  0  0  0  0  0  0  0  0  0
   28.9260   14.0470    8.1920 C   0  0  0  0  0  0  0  0  0  0  0  0
   27.7170   14.6990    7.8680 C   0  0  0  0  0  0  0  0  0  0  0  0
   26.8700   15.3420    8.8810 C   0  0  0  0  0  0  0  0  0  0  0  0
   25.4740   15.0920    8.9290 C   0  0  0  0  0  0  0  0  0  0  0  0
   24.6490   15.6960    9.8830 C   0  0  0  0  0  0  0  0  0  0  0  0
   25.2460   16.5560   10.7810 C   0  0  0  0  0  0  0  0  0  0  0  0
   26.6100   16.8270   10.7670 C   0  0  0  0  0  0  0  0  0  0  0  0
   27.4330   16.2290    9.8250 C   0  0  0  0  0  0  0  0  0  0  0  0
   26.9550   17.7690   11.8720 C   0  0  0  0  0  0  0  0  0  0  0  0
   25.6510   18.0800   12.4440 N   0  0  0  0  0  0  0  0  0  0  0  0
   25.4720   18.7770   13.7110 C   0  0  2  0  0  0  0  0  0  0  0  0
   26.6660   19.6590   14.0640 C   0  0  0  0  0  0  0  0  0  0  0  0
   26.3700   20.4210   15.3470 C   0  0  0  0  0  0  0  0  0  0  0  0
   26.0100   19.4790   16.4710 C   0  0  0  0  0  0  0  0  0  0  0  0
   26.3440   19.6860   17.6330 O   0  0  0  0  0  0  0  0  0  0  0  0
   25.2690   18.3750   16.1330 N   0  0  0  0  0  0  0  0  0  0  0  0
   25.2030   17.8110   14.8780 C   0  0  0  0  0  0  0  0  0  0  0  0
   24.9570   16.6150   14.7500 O   0  0  0  0  0  0  0  0  0  0  0  0
   24.6380   17.3170   11.8770 C   0  0  0  0  0  0  0  0  0  0  0  0
   23.4670   17.2710   12.2000 O   0  0  0  0  0  0  0  0  0  0  0  0
   27.3850   14.6930    6.5020 C   0  0  0  0  0  0  0  0  0  0  0  0
   26.2700   15.2560    5.9450 O   0  0  0  0  0  0  0  0  0  0  0  0
   26.3250   15.0310    4.6090 C   0  0  0  0  0  0  0  0  0  0  0  0
   27.4580   14.3250    4.2850 C   0  0  0  0  0  0  0  0  0  0  0  0
   28.1490   14.0890    5.5050 C   0  0  0  0  0  0  0  0  0  0  0  0
   27.3230   10.4620    4.3710 C   0  0  0  0  0  0  0  0  0  0  0  0
   26.1820   10.4570    5.0270 N   0  0  0  0  0  0  0  0  0  0  0  0
   24.8497    9.5640    8.8806 H   0  0  0  0  0  0  0  0  0  0  0  0
   23.8507    9.4948    7.3893 H   0  0  0  0  0  0  0  0  0  0  0  0
   25.5127    8.8135    7.3893 H   0  0  0  0  0  0  0  0  0  0  0  0
   24.6038   11.5671    6.9310 H   0  0  0  0  0  0  0  0  0  0  0  0
   25.8647   11.4500    8.2325 H   0  0  0  0  0  0  0  0  0  0  0  0
   28.3985   11.3798    7.3400 H   0  0  0  0  0  0  0  0  0  0  0  0
   30.6610   12.9388    7.5182 H   0  0  0  0  0  0  0  0  0  0  0  0
   29.2545   14.0267    9.2416 H   0  0  0  0  0  0  0  0  0  0  0  0
   25.0284   14.4040    8.1954 H   0  0  0  0  0  0  0  0  0  0  0  0
   23.5683   15.4936    9.9159 H   0  0  0  0  0  0  0  0  0  0  0  0
   28.5119   16.4429    9.8130 H   0  0  0  0  0  0  0  0  0  0  0  0
   27.6095   17.2881   12.6139 H   0  0  0  0  0  0  0  0  0  0  0  0
   27.5069   18.6579   11.5326 H   0  0  0  0  0  0  0  0  0  0  0  0
   24.5884   19.4158   13.5655 H   0  0  0  0  0  0  0  0  0  0  0  0
   27.5569   19.0301   14.2080 H   0  0  0  0  0  0  0  0  0  0  0  0
   26.8498   20.3725   13.2472 H   0  0  0  0  0  0  0  0  0  0  0  0
   27.2606   20.9990   15.6346 H   0  0  0  0  0  0  0  0  0  0  0  0
   25.5155   21.0896   15.1657 H   0  0  0  0  0  0  0  0  0  0  0  0
   24.7160   17.9309   16.8799 H   0  0  0  0  0  0  0  0  0  0  0  0
   25.5678   15.3670    3.8853 H   0  0  0  0  0  0  0  0  0  0  0  0
   27.7694   14.0052    3.2796 H   0  0  0  0  0  0  0  0  0  0  0  0
   27.4325   10.2271    3.3020 H   0  0  0  0  0  0  0  0  0  0  0  0
  1  2  1  0
  2  3  1  0
  3  4  2  0
  4  5  1  0
  5  6  1  0
  6  7  2  0
  6  8  2  0
  6  9  1  0
  9 10  1  0
 10 11  2  0
 11 12  1  0
 12 13  2  0
 13 14  1  0
 14 15  2  0
 15 16  1  0
 16 17  2  0
 17 18  1  0
 18 19  2  0
 18 20  1  0
 20 21  1  0
 21 22  1  0
 22 23  1  0
 23 24  1  0
 24 25  1  0
 25 26  2  0
 25 27  1  0
 27 28  1  0
 28 29  2  0
 21 30  1  0
 30 31  2  0
 13 32  1  0
 32 33  1  0
 33 34  1  0
 34 35  2  0
 35 36  1  0
  5 37  1  0
 37 38  2  0
 38  3  1  0
 36 10  1  0
 19 14  1  0
 28 22  1  0
 36 32  2  0
 30 17  1  0
  1 39  1  0
  1 40  1  0
  1 41  1  0
  2 42  1  0
  2 43  1  0
  4 44  1  0
 11 45  1  0
 12 46  1  0
 15 47  1  0
 16 48  1  0
 19 49  1  0
 20 50  1  0
 20 51  1  0
 22 52  1  6
 23 53  1  0
 23 54  1  0
 24 55  1  0
 24 56  1  0
 27 57  1  0
 34 58  1  0
 35 59  1  0
 37 60  1  0
M  END
>  <meeko>  (921) 
{"is_sidechain": [true], "free_energy": -11.15, "intermolecular_energy": 0.0, "internal_energy": -11.15, "cluster_size": 20, "cluster_id": 1, "rank_in_cluster": 1}

>  <_RMSD_MCS_to_ref>  (921) 
1.9243529466181342

$$$$
ligand
     RDKit          3D

 59 63  0  0  0  0  0  0  0  0999 V2000
   24.8710    9.6160    7.7820 C   0  0  0  0  0  0  0  0  0  0  0  0
   25.4240   10.9650    7.3490 C   0  0  0  0  0  0  0  0  0  0  0  0
   26.8920   10.9200    7.1120 C   0  0  0  0  0  0  0  0  0  0  0  0
   27.6330   11.5370    6.1220 C   0  0  0  0  0  0  0  0  0  0  0  0
   28.9150   11.1250    6.3560 N   0  0  0  0  0  0  0  0  0  0  0  0
   30.3020   11.7600    5.6330 S   0  0  0  0  0  6  0  0  0  0  0  0
   29.9140   11.9790    4.2510 O   0  0  0  0  0  0  0  0  0  0  0  0
   31.3510   10.8290    6.0010 O   0  0  0  0  0  0  0  0  0  0  0  0
   30.5380   13.2100    6.3550 O   0  0  0  0  0  0  0  0  0  0  0  0
   30.1070   14.3530    5.7330 C   0  0  0  0  0  0  0  0  0  0  0  0
   31.0370   15.0090    4.9250 C   0  0  0  0  0  0  0  0  0  0  0  0
   30.6620   16.1610    4.2410 C   0  0  0  0  0  0  0  0  0  0  0  0
   29.3700   16.6690    4.3900 C   0  0  0  0  0  0  0  0  0  0  0  0
   28.4510   16.0520    5.2510 C   0  0  0  0  0  0  0  0  0  0  0  0
   28.8210   14.8830    5.9200 C   0  0  0  0  0  0  0  0  0  0  0  0
   27.9290   14.1380    6.6440 O   0  0  0  0  0  0  0  0  0  0  0  0
   27.3660   14.7590    7.7240 C   0  0  0  0  0  0  0  0  0  0  0  0
   27.5710   14.1430    8.9620 C   0  0  0  0  0  0  0  0  0  0  0  0
   26.9660   14.6540   10.1110 C   0  0  0  0  0  0  0  0  0  0  0  0
   26.1240   15.7670   10.0230 C   0  0  0  0  0  0  0  0  0  0  0  0
   25.4940   16.2800   11.2700 C   0  0  0  0  0  0  0  0  0  0  0  0
   24.3620   15.9240   11.5800 O   0  0  0  0  0  0  0  0  0  0  0  0
   26.2280   17.1760   12.0130 N   0  0  0  0  0  0  0  0  0  0  0  0
   25.6450   17.8460   13.1670 C   0  0  1  0  0  0  0  0  0  0  0  0
   25.7480   17.0020   14.4330 C   0  0  0  0  0  0  0  0  0  0  0  0
   25.1530   17.7690   15.6040 C   0  0  0  0  0  0  0  0  0  0  0  0
   25.8160   19.1160   15.7720 C   0  0  0  0  0  0  0  0  0  0  0  0
   25.9740   19.6400   16.8700 O   0  0  0  0  0  0  0  0  0  0  0  0
   26.2120   19.7540   14.6230 N   0  0  0  0  0  0  0  0  0  0  0  0
   26.3760   19.1730   13.3890 C   0  0  0  0  0  0  0  0  0  0  0  0
   27.0590   19.7120   12.5190 O   0  0  0  0  0  0  0  0  0  0  0  0
   25.9150   16.3750    8.7800 C   0  0  0  0  0  0  0  0  0  0  0  0
   26.5380   15.8710    7.6230 C   0  0  0  0  0  0  0  0  0  0  0  0
   26.2500   16.5580    6.3470 C   0  0  0  0  0  0  0  0  0  0  0  0
   25.1900   17.1740    6.2270 O   0  0  0  0  0  0  0  0  0  0  0  0
   27.1850   16.6420    5.3480 N   0  0  0  0  0  0  0  0  0  0  0  0
   28.9390   10.3690    7.4840 C   0  0  0  0  0  0  0  0  0  0  0  0
   27.7200   10.2050    7.9570 N   0  0  0  0  0  0  0  0  0  0  0  0
   24.8497    9.5640    8.8806 H   0  0  0  0  0  0  0  0  0  0  0  0
   23.8507    9.4948    7.3893 H   0  0  0  0  0  0  0  0  0  0  0  0
   25.5127    8.8135    7.3893 H   0  0  0  0  0  0  0  0  0  0  0  0
   24.9240   11.2707    6.4181 H   0  0  0  0  0  0  0  0  0  0  0  0
   25.2344   11.6840    8.1597 H   0  0  0  0  0  0  0  0  0  0  0  0
   27.2732   12.2068    5.3271 H   0  0  0  0  0  0  0  0  0  0  0  0
   32.0605   14.6174    4.8296 H   0  0  0  0  0  0  0  0  0  0  0  0
   31.3821   16.6707    3.5840 H   0  0  0  0  0  0  0  0  0  0  0  0
   29.0694   17.5638    3.8253 H   0  0  0  0  0  0  0  0  0  0  0  0
   28.2119   13.2517    9.0308 H   0  0  0  0  0  0  0  0  0  0  0  0
   27.1516   14.1810   11.0866 H   0  0  0  0  0  0  0  0  0  0  0  0
   27.2034   17.3755   11.7492 H   0  0  0  0  0  0  0  0  0  0  0  0
   24.5773   18.0119   12.9607 H   0  0  0  0  0  0  0  0  0  0  0  0
   25.1956   16.0612   14.2924 H   0  0  0  0  0  0  0  0  0  0  0  0
   26.8051   16.7793   14.6400 H   0  0  0  0  0  0  0  0  0  0  0  0
   24.0780   17.9186   15.4251 H   0  0  0  0  0  0  0  0  0  0  0  0
   25.3174   17.1845   16.5212 H   0  0  0  0  0  0  0  0  0  0  0  0
   26.4043   20.7635   14.6926 H   0  0  0  0  0  0  0  0  0  0  0  0
   25.2582   17.2543    8.7066 H   0  0  0  0  0  0  0  0  0  0  0  0
   26.9148   17.2290    4.5460 H   0  0  0  0  0  0  0  0  0  0  0  0
   29.8492    9.9517    7.9394 H   0  0  0  0  0  0  0  0  0  0  0  0
  1  2  1  0
  2  3  1  0
  3  4  2  0
  4  5  1  0
  5  6  1  0
  6  7  2  0
  6  8  2  0
  6  9  1  0
  9 10  1  0
 10 11  2  0
 11 12  1  0
 12 13  2  0
 13 14  1  0
 14 15  2  0
 15 16  1  0
 16 17  1  0
 17 18  2  0
 18 19  1  0
 19 20  2  0
 20 21  1  0
 21 22  2  0
 21 23  1  0
 23 24  1  0
 24 25  1  0
 25 26  1  0
 26 27  1  0
 27 28  2  0
 27 29  1  0
 29 30  1  0
 30 31  2  0
 20 32  1  0
 32 33  2  0
 33 34  1  0
 34 35  2  0
 34 36  1  0
  5 37  1  0
 37 38  2  0
 38  3  1  0
 15 10  1  0
 33 17  1  0
 36 14  1  0
 30 24  1  0
  1 39  1  0
  1 40  1  0
  1 41  1  0
  2 42  1  0
  2 43  1  0
  4 44  1  0
 11 45  1  0
 12 46  1  0
 13 47  1  0
 18 48  1  0
 19 49  1  0
 23 50  1  0
 24 51  1  6
 25 52  1  0
 25 53  1  0
 26 54  1  0
 26 55  1  0
 29 56  1  0
 32 57  1  0
 36 58  1  0
 37 59  1  0
M  END
>  <meeko>  (922) 
{"is_sidechain": [true], "free_energy": -11.15, "intermolecular_energy": 0.0, "internal_energy": -11.15, "cluster_size": 18, "cluster_id": 1, "rank_in_cluster": 1}

>  <_RMSD_MCS_to_ref>  (922) 
1.7042014747871415

$$$$
ligand
     RDKit          3D

 53 57  0  0  0  0  0  0  0  0999 V2000
   24.8710    9.6160    7.7820 C   0  0  0  0  0  0  0  0  0  0  0  0
   25.4240   10.9650    7.3490 C   0  0  0  0  0  0  0  0  0  0  0  0
   26.8010   11.1950    7.8640 C   0  0  0  0  0  0  0  0  0  0  0  0
   27.2070   11.9580    8.9410 C   0  0  0  0  0  0  0  0  0  0  0  0
   28.5680   11.8360    8.9450 N   0  0  0  0  0  0  0  0  0  0  0  0
   29.6430   12.7760    9.8480 S   0  0  0  0  0  6  0  0  0  0  0  0
   30.9560   12.3820    9.3700 O   0  0  0  0  0  0  0  0  0  0  0  0
   29.2610   12.5650   11.2350 O   0  0  0  0  0  0  0  0  0  0  0  0
   29.4110   14.3490    9.4740 O   0  0  0  0  0  0  0  0  0  0  0  0
   28.3160   14.6830    8.7190 C   0  0  0  0  0  0  0  0  0  0  0  0
   28.2880   14.3880    7.3690 C   0  0  0  0  0  0  0  0  0  0  0  0
   27.2060   14.6890    6.5810 C   0  0  0  0  0  0  0  0  0  0  0  0
   26.0820   15.3310    7.0740 C   0  0  0  0  0  0  0  0  0  0  0  0
   26.0800   15.6620    8.4470 C   0  0  0  0  0  0  0  0  0  0  0  0
   25.1370   16.3040    9.3000 C   0  0  0  0  0  0  0  0  0  0  0  0
   25.6620   16.3520   10.5800 C   0  0  0  0  0  0  0  0  0  0  0  0
   25.1500   16.8830   11.8230 C   0  0  0  0  0  0  0  0  0  0  0  0
   23.9520   16.8820   12.0940 O   0  0  0  0  0  0  0  0  0  0  0  0
   26.0910   17.4000   12.6790 N   0  0  0  0  0  0  0  0  0  0  0  0
   25.7130   18.1060   13.8920 C   0  0  1  0  0  0  0  0  0  0  0  0
   26.2540   17.4310   15.1470 C   0  0  0  0  0  0  0  0  0  0  0  0
   25.8580   18.2420   16.3710 C   0  0  0  0  0  0  0  0  0  0  0  0
   26.3240   19.6740   16.2550 C   0  0  0  0  0  0  0  0  0  0  0  0
   26.6800   20.3320   17.2270 O   0  0  0  0  0  0  0  0  0  0  0  0
   26.3060   20.2260   14.9990 N   0  0  0  0  0  0  0  0  0  0  0  0
   26.2670   19.5320   13.8150 C   0  0  0  0  0  0  0  0  0  0  0  0
   26.6490   20.0420   12.7630 O   0  0  0  0  0  0  0  0  0  0  0  0
   26.9040   15.7570   10.5170 N   0  0  0  0  0  0  0  0  0  0  0  0
   27.1870   15.3340    9.2400 C   0  0  0  0  0  0  0  0  0  0  0  0
   27.3710   14.2750    5.2950 O   0  0  0  0  0  0  0  0  0  0  0  0
   28.6650   13.6400    5.3740 C   0  0  0  0  0  0  0  0  0  0  0  0
   29.2700   13.7460    6.6790 O   0  0  0  0  0  0  0  0  0  0  0  0
   28.9470   11.0610    7.8960 C   0  0  0  0  0  0  0  0  0  0  0  0
   27.8940   10.6410    7.2260 N   0  0  0  0  0  0  0  0  0  0  0  0
   24.8497    9.5640    8.8806 H   0  0  0  0  0  0  0  0  0  0  0  0
   23.8507    9.4948    7.3893 H   0  0  0  0  0  0  0  0  0  0  0  0
   25.5127    8.8135    7.3893 H   0  0  0  0  0  0  0  0  0  0  0  0
   25.4449   11.0039    6.2499 H   0  0  0  0  0  0  0  0  0  0  0  0
   24.7716   11.7480    7.7628 H   0  0  0  0  0  0  0  0  0  0  0  0
   26.5783   12.5328    9.6369 H   0  0  0  0  0  0  0  0  0  0  0  0
   25.2279   15.5726    6.4243 H   0  0  0  0  0  0  0  0  0  0  0  0
   24.1561   16.6959    8.9931 H   0  0  0  0  0  0  0  0  0  0  0  0
   27.0899   17.2846   12.4559 H   0  0  0  0  0  0  0  0  0  0  0  0
   24.6152   18.1033   13.9611 H   0  0  0  0  0  0  0  0  0  0  0  0
   25.8346   16.4173   15.2277 H   0  0  0  0  0  0  0  0  0  0  0  0
   27.3507   17.3709   15.0867 H   0  0  0  0  0  0  0  0  0  0  0  0
   24.7626   18.2286   16.4706 H   0  0  0  0  0  0  0  0  0  0  0  0
   26.3347   17.7923   17.2545 H   0  0  0  0  0  0  0  0  0  0  0  0
   26.3233   21.2541   14.9389 H   0  0  0  0  0  0  0  0  0  0  0  0
   27.5371   15.6441   11.3216 H   0  0  0  0  0  0  0  0  0  0  0  0
   28.5472   12.5742    5.1285 H   0  0  0  0  0  0  0  0  0  0  0  0
   29.3270   14.1564    4.6633 H   0  0  0  0  0  0  0  0  0  0  0  0
   29.9891   10.8179    7.6414 H   0  0  0  0  0  0  0  0  0  0  0  0
  1  2  1  0
  2  3  1  0
  3  4  2  0
  4  5  1  0
  5  6  1  0
  6  7  2  0
  6  8  2  0
  6  9  1  0
  9 10  1  0
 10 11  2  0
 11 12  1  0
 12 13  2  0
 13 14  1  0
 14 15  1  0
 15 16  2  0
 16 17  1  0
 17 18  2  0
 17 19  1  0
 19 20  1  0
 20 21  1  0
 21 22  1  0
 22 23  1  0
 23 24  2  0
 23 25  1  0
 25 26  1  0
 26 27  2  0
 16 28  1  0
 28 29  1  0
 12 30  1  0
 30 31  1  0
 31 32  1  0
  5 33  1  0
 33 34  2  0
 34  3  1  0
 29 10  1  0
 32 11  1  0
 29 14  2  0
 26 20  1  0
  1 35  1  0
  1 36  1  0
  1 37  1  0
  2 38  1  0
  2 39  1  0
  4 40  1  0
 13 41  1  0
 15 42  1  0
 19 43  1  0
 20 44  1  1
 21 45  1  0
 21 46  1  0
 22 47  1  0
 22 48  1  0
 25 49  1  0
 28 50  1  0
 31 51  1  0
 31 52  1  0
 33 53  1  0
M  END
>  <meeko>  (923) 
{"is_sidechain": [true], "free_energy": -11.15, "intermolecular_energy": 0.0, "internal_energy": -11.15, "cluster_size": 19, "cluster_id": 1, "rank_in_cluster": 1}

>  <_RMSD_MCS_to_ref>  (923) 
1.1058041757020094

$$$$
ligand
     RDKit          3D

 56 60  0  0  0  0  0  0  0  0999 V2000
   24.8540    9.4020    7.6050 C   0  0  0  0  0  0  0  0  0  0  0  0
   25.5230   10.7550    7.4270 C   0  0  0  0  0  0  0  0  0  0  0  0
   27.0060   10.6660    7.5160 C   0  0  0  0  0  0  0  0  0  0  0  0
   27.9480   11.6650    7.3780 C   0  0  0  0  0  0  0  0  0  0  0  0
   29.1430   11.0240    7.5440 N   0  0  0  0  0  0  0  0  0  0  0  0
   30.6470   11.7720    7.5860 S   0  0  0  0  0  6  0  0  0  0  0  0
   30.8430   12.2590    8.9370 O   0  0  0  0  0  0  0  0  0  0  0  0
   31.5480   10.8060    6.9850 O   0  0  0  0  0  0  0  0  0  0  0  0
   30.4900   13.1560    6.4840 C   0  0  0  0  0  0  0  0  0  0  0  0
   31.3020   13.1400    5.3460 C   0  0  0  0  0  0  0  0  0  0  0  0
   31.1630   14.1660    4.4450 C   0  0  0  0  0  0  0  0  0  0  0  0
   30.2850   15.1740    4.6020 N   0  0  0  0  0  0  0  0  0  0  0  0
   29.5210   15.2040    5.7040 C   0  0  0  0  0  0  0  0  0  0  0  0
   28.6400   16.2680    5.8320 C   0  0  0  0  0  0  0  0  0  0  0  0
   27.7980   16.4160    6.9380 C   0  0  0  0  0  0  0  0  0  0  0  0
   27.8440   15.4750    7.9610 C   0  0  0  0  0  0  0  0  0  0  0  0
   27.0150   15.5920    9.1070 N   0  0  0  0  0  0  0  0  0  0  0  0
   27.3060   16.1460   10.3290 C   0  0  0  0  0  0  0  0  0  0  0  0
   26.1510   16.0040   11.0690 C   0  0  0  0  0  0  0  0  0  0  0  0
   25.9240   16.4290   12.4400 C   0  0  0  0  0  0  0  0  0  0  0  0
   25.6160   15.6500   13.3370 O   0  0  0  0  0  0  0  0  0  0  0  0
   26.0780   17.7810   12.6400 N   0  0  0  0  0  0  0  0  0  0  0  0
   25.7650   18.4160   13.9070 C   0  0  1  0  0  0  0  0  0  0  0  0
   26.6670   17.9220   15.0330 C   0  0  0  0  0  0  0  0  0  0  0  0
   26.3060   18.6370   16.3250 C   0  0  0  0  0  0  0  0  0  0  0  0
   26.3830   20.1380   16.1630 C   0  0  0  0  0  0  0  0  0  0  0  0
   26.7130   20.8830   17.0790 O   0  0  0  0  0  0  0  0  0  0  0  0
   26.0270   20.6410   14.9370 N   0  0  0  0  0  0  0  0  0  0  0  0
   25.9300   19.9330   13.7640 C   0  0  0  0  0  0  0  0  0  0  0  0
   25.9560   20.5040   12.6750 O   0  0  0  0  0  0  0  0  0  0  0  0
   25.2060   15.3780   10.3000 N   0  0  0  0  0  0  0  0  0  0  0  0
   25.7390   15.1330    9.1110 N   0  0  0  0  0  0  0  0  0  0  0  0
   28.7330   14.3920    7.8500 C   0  0  0  0  0  0  0  0  0  0  0  0
   29.5760   14.2210    6.7150 C   0  0  0  0  0  0  0  0  0  0  0  0
   28.9160    9.7050    7.7660 C   0  0  0  0  0  0  0  0  0  0  0  0
   27.6230    9.4560    7.7660 N   0  0  0  0  0  0  0  0  0  0  0  0
   24.7464    9.1845    8.6779 H   0  0  0  0  0  0  0  0  0  0  0  0
   23.8606    9.4192    7.1330 H   0  0  0  0  0  0  0  0  0  0  0  0
   25.4708    8.6230    7.1330 H   0  0  0  0  0  0  0  0  0  0  0  0
   25.2510   11.1573    6.4400 H   0  0  0  0  0  0  0  0  0  0  0  0
   25.1753   11.4124    8.2375 H   0  0  0  0  0  0  0  0  0  0  0  0
   27.7760   12.7332    7.1797 H   0  0  0  0  0  0  0  0  0  0  0  0
   32.0287   12.3314    5.1782 H   0  0  0  0  0  0  0  0  0  0  0  0
   31.8015   14.1644    3.5493 H   0  0  0  0  0  0  0  0  0  0  0  0
   28.6026   17.0234    5.0333 H   0  0  0  0  0  0  0  0  0  0  0  0
   27.1056   17.2686    6.9986 H   0  0  0  0  0  0  0  0  0  0  0  0
   28.2540   16.6035   10.6483 H   0  0  0  0  0  0  0  0  0  0  0  0
   26.4271   18.3623   11.8647 H   0  0  0  0  0  0  0  0  0  0  0  0
   24.7276   18.1571   14.1654 H   0  0  0  0  0  0  0  0  0  0  0  0
   26.5300   16.8384   15.1634 H   0  0  0  0  0  0  0  0  0  0  0  0
   27.7166   18.1320   14.7797 H   0  0  0  0  0  0  0  0  0  0  0  0
   25.2813   18.3600   16.6134 H   0  0  0  0  0  0  0  0  0  0  0  0
   27.0244   18.3346   17.1012 H   0  0  0  0  0  0  0  0  0  0  0  0
   25.8116   21.6472   14.8920 H   0  0  0  0  0  0  0  0  0  0  0  0
   28.7790   13.6541    8.6645 H   0  0  0  0  0  0  0  0  0  0  0  0
   29.7008    8.9505    7.9236 H   0  0  0  0  0  0  0  0  0  0  0  0
  1  2  1  0
  2  3  1  0
  3  4  2  0
  4  5  1  0
  5  6  1  0
  6  7  2  0
  6  8  2  0
  6  9  1  0
  9 10  2  0
 10 11  1  0
 11 12  2  0
 12 13  1  0
 13 14  2  0
 14 15  1  0
 15 16  2  0
 16 17  1  0
 17 18  1  0
 18 19  2  0
 19 20  1  0
 20 21  2  0
 20 22  1  0
 22 23  1  0
 23 24  1  0
 24 25  1  0
 25 26  1  0
 26 27  2  0
 26 28  1  0
 28 29  1  0
 29 30  2  0
 19 31  1  0
 31 32  2  0
 16 33  1  0
 33 34  2  0
  5 35  1  0
 35 36  2  0
 36  3  1  0
 34  9  1  0
 34 13  1  0
 32 17  1  0
 29 23  1  0
  1 37  1  0
  1 38  1  0
  1 39  1  0
  2 40  1  0
  2 41  1  0
  4 42  1  0
 10 43  1  0
 11 44  1  0
 14 45  1  0
 15 46  1  0
 18 47  1  0
 22 48  1  0
 23 49  1  1
 24 50  1  0
 24 51  1  0
 25 52  1  0
 25 53  1  0
 28 54  1  0
 33 55  1  0
 35 56  1  0
M  END
>  <meeko>  (924) 
{"is_sidechain": [true], "free_energy": -11.14, "intermolecular_energy": 0.0, "internal_energy": -11.14, "cluster_size": 14, "cluster_id": 1, "rank_in_cluster": 1}

>  <_RMSD_MCS_to_ref>  (924) 
1.060057860056075

$$$$
ligand
     RDKit          3D

 60 65  0  0  0  0  0  0  0  0999 V2000
   24.8540    9.4020    7.6050 C   0  0  0  0  0  0  0  0  0  0  0  0
   25.5230   10.7550    7.4270 C   0  0  0  0  0  0  0  0  0  0  0  0
   24.6680   11.8740    7.9070 C   0  0  0  0  0  0  0  0  0  0  0  0
   24.9300   12.8000    8.8990 C   0  0  0  0  0  0  0  0  0  0  0  0
   23.8210   13.5970    8.9150 N   0  0  0  0  0  0  0  0  0  0  0  0
   23.6130   14.9910    9.8440 S   0  0  0  0  0  6  0  0  0  0  0  0
   22.6250   14.6100   10.8410 O   0  0  0  0  0  0  0  0  0  0  0  0
   23.3250   16.0360    8.8770 O   0  0  0  0  0  0  0  0  0  0  0  0
   25.0160   15.3070   10.6350 O   0  0  0  0  0  0  0  0  0  0  0  0
   25.7440   16.4040   10.2650 C   0  0  0  0  0  0  0  0  0  0  0  0
   26.4360   16.4990    9.0480 C   0  0  0  0  0  0  0  0  0  0  0  0
   26.3770   15.4850    8.0010 C   0  0  0  0  0  0  0  0  0  0  0  0
   27.2910   14.4810    7.7630 C   0  0  0  0  0  0  0  0  0  0  0  0
   26.8120   13.7900    6.6770 N   0  0  0  0  0  0  0  0  0  0  0  0
   27.3590   12.6990    6.0080 C   0  0  0  0  0  0  0  0  0  0  0  0
   26.6980   12.1760    4.9610 C   0  0  0  0  0  0  0  0  0  0  0  0
   25.4300   12.7700    4.5610 C   0  0  0  0  0  0  0  0  0  0  0  0
   24.9090   13.8270    5.2150 C   0  0  0  0  0  0  0  0  0  0  0  0
   25.6060   14.3850    6.3240 C   0  0  0  0  0  0  0  0  0  0  0  0
   25.3210   15.3950    7.1190 N   0  0  0  0  0  0  0  0  0  0  0  0
   27.2570   17.6350    8.8220 C   0  0  0  0  0  0  0  0  0  0  0  0
   27.3870   18.6650    9.7650 C   0  0  0  0  0  0  0  0  0  0  0  0
   26.6580   18.5690   10.9330 C   0  0  0  0  0  0  0  0  0  0  0  0
   25.8270   17.4730   11.1410 C   0  0  0  0  0  0  0  0  0  0  0  0
   25.1710   17.6490   12.4340 C   0  0  0  0  0  0  0  0  0  0  0  0
   24.4010   16.8420   12.9150 O   0  0  0  0  0  0  0  0  0  0  0  0
   25.6420   18.8300   12.9850 N   0  0  0  0  0  0  0  0  0  0  0  0
   25.6050   19.0740   14.4270 C   0  0  1  0  0  0  0  0  0  0  0  0
   26.6790   18.3150   15.2050 C   0  0  0  0  0  0  0  0  0  0  0  0
   26.6000   18.6910   16.6750 C   0  0  0  0  0  0  0  0  0  0  0  0
   26.7770   20.1790   16.8620 C   0  0  0  0  0  0  0  0  0  0  0  0
   27.2450   20.6550   17.8910 O   0  0  0  0  0  0  0  0  0  0  0  0
   26.3040   20.9780   15.8530 N   0  0  0  0  0  0  0  0  0  0  0  0
   25.6910   20.5900   14.6860 C   0  0  0  0  0  0  0  0  0  0  0  0
   25.1720   21.4220   13.9400 O   0  0  0  0  0  0  0  0  0  0  0  0
   26.6470   19.4560   12.1330 C   0  0  0  0  0  0  0  0  0  0  0  0
   22.9540   13.1710    7.9590 C   0  0  0  0  0  0  0  0  0  0  0  0
   23.4320   12.1120    7.3350 N   0  0  0  0  0  0  0  0  0  0  0  0
   24.7464    9.1845    8.6779 H   0  0  0  0  0  0  0  0  0  0  0  0
   23.8606    9.4192    7.1330 H   0  0  0  0  0  0  0  0  0  0  0  0
   25.4708    8.6230    7.1330 H   0  0  0  0  0  0  0  0  0  0  0  0
   26.4655   10.7612    7.9942 H   0  0  0  0  0  0  0  0  0  0  0  0
   25.7009   10.9041    6.3518 H   0  0  0  0  0  0  0  0  0  0  0  0
   25.8268   12.8774    9.5312 H   0  0  0  0  0  0  0  0  0  0  0  0
   28.2132   14.2757    8.3263 H   0  0  0  0  0  0  0  0  0  0  0  0
   28.3191   12.2706    6.3316 H   0  0  0  0  0  0  0  0  0  0  0  0
   27.1081   11.3135    4.4153 H   0  0  0  0  0  0  0  0  0  0  0  0
   24.8846   12.3460    3.7050 H   0  0  0  0  0  0  0  0  0  0  0  0
   23.9490   14.2569    4.8932 H   0  0  0  0  0  0  0  0  0  0  0  0
   27.8104   17.7099    7.8743 H   0  0  0  0  0  0  0  0  0  0  0  0
   28.0497   19.5231    9.5794 H   0  0  0  0  0  0  0  0  0  0  0  0
   24.6483   18.6827   14.8033 H   0  0  0  0  0  0  0  0  0  0  0  0
   26.5163   17.2328   15.0940 H   0  0  0  0  0  0  0  0  0  0  0  0
   27.6719   18.5786   14.8118 H   0  0  0  0  0  0  0  0  0  0  0  0
   25.6178   18.3928   17.0705 H   0  0  0  0  0  0  0  0  0  0  0  0
   27.4058   18.1712   17.2140 H   0  0  0  0  0  0  0  0  0  0  0  0
   26.4226   21.9925   15.9860 H   0  0  0  0  0  0  0  0  0  0  0  0
   26.3562   20.4824   11.8649 H   0  0  0  0  0  0  0  0  0  0  0  0
   27.6311   19.5501   12.6154 H   0  0  0  0  0  0  0  0  0  0  0  0
   21.9864   13.6445    7.7363 H   0  0  0  0  0  0  0  0  0  0  0  0
  1  2  1  0
  2  3  1  0
  3  4  2  0
  4  5  1  0
  5  6  1  0
  6  7  2  0
  6  8  2  0
  6  9  1  0
  9 10  1  0
 10 11  1  0
 11 12  1  0
 12 13  2  0
 13 14  1  0
 14 15  1  0
 15 16  2  0
 16 17  1  0
 17 18  2  0
 18 19  1  0
 19 20  2  0
 11 21  2  0
 21 22  1  0
 22 23  2  0
 23 24  1  0
 24 25  1  0
 25 26  2  0
 25 27  1  0
 27 28  1  0
 28 29  1  0
 29 30  1  0
 30 31  1  0
 31 32  2  0
 31 33  1  0
 33 34  1  0
 34 35  2  0
 27 36  1  0
  5 37  1  0
 37 38  2  0
 38  3  1  0
 24 10  2  0
 34 28  1  0
 20 12  1  0
 36 23  1  0
 19 14  1  0
  1 39  1  0
  1 40  1  0
  1 41  1  0
  2 42  1  0
  2 43  1  0
  4 44  1  0
 13 45  1  0
 15 46  1  0
 16 47  1  0
 17 48  1  0
 18 49  1  0
 21 50  1  0
 22 51  1  0
 28 52  1  1
 29 53  1  0
 29 54  1  0
 30 55  1  0
 30 56  1  0
 33 57  1  0
 36 58  1  0
 36 59  1  0
 37 60  1  0
M  END
>  <meeko>  (925) 
{"is_sidechain": [true], "free_energy": -11.14, "intermolecular_energy": 0.0, "internal_energy": -11.14, "cluster_size": 10, "cluster_id": 1, "rank_in_cluster": 1}

>  <_RMSD_MCS_to_ref>  (925) 
0.9170419837717345

$$$$
ligand
     RDKit          3D

 61 66  0  0  0  0  0  0  0  0999 V2000
   24.8540    9.4020    7.6050 C   0  0  0  0  0  0  0  0  0  0  0  0
   25.5230   10.7550    7.4270 C   0  0  0  0  0  0  0  0  0  0  0  0
   25.6850   11.1180    5.9920 C   0  0  0  0  0  0  0  0  0  0  0  0
   26.7290   11.7780    5.3750 C   0  0  0  0  0  0  0  0  0  0  0  0
   26.3750   11.8070    4.0570 N   0  0  0  0  0  0  0  0  0  0  0  0
   27.1450   12.6970    2.8500 S   0  0  0  0  0  6  0  0  0  0  0  0
   26.2510   12.6270    1.7100 O   0  0  0  0  0  0  0  0  0  0  0  0
   28.4900   12.1570    2.7930 O   0  0  0  0  0  0  0  0  0  0  0  0
   27.2060   14.2330    3.3930 O   0  0  0  0  0  0  0  0  0  0  0  0
   26.8090   14.5870    4.6550 C   0  0  0  0  0  0  0  0  0  0  0  0
   27.7700   15.2530    5.4130 C   0  0  0  0  0  0  0  0  0  0  0  0
   27.4810   15.6670    6.7190 C   0  0  0  0  0  0  0  0  0  0  0  0
   26.2430   15.4310    7.3000 C   0  0  0  0  0  0  0  0  0  0  0  0
   26.0060   15.8430    8.5520 N   0  0  0  0  0  0  0  0  0  0  0  0
   24.7910   15.5910    9.0770 C   0  0  0  0  0  0  0  0  0  0  0  0
   24.5290   16.0450   10.4620 C   0  0  0  0  0  0  0  0  0  0  0  0
   23.3000   15.7440   11.1130 C   0  0  0  0  0  0  0  0  0  0  0  0
   23.0280   16.1610   12.4210 C   0  0  0  0  0  0  0  0  0  0  0  0
   24.0050   16.8840   13.0710 C   0  0  0  0  0  0  0  0  0  0  0  0
   25.2190   17.2040   12.4740 C   0  0  0  0  0  0  0  0  0  0  0  0
   25.4920   16.7940   11.1770 C   0  0  0  0  0  0  0  0  0  0  0  0
   26.0560   18.0070   13.4140 C   0  0  0  0  0  0  0  0  0  0  0  0
   25.2430   18.0240   14.6240 N   0  0  0  0  0  0  0  0  0  0  0  0
   25.5170   18.8910   15.7640 C   0  0  1  0  0  0  0  0  0  0  0  0
   26.5590   18.2990   16.7090 C   0  0  0  0  0  0  0  0  0  0  0  0
   26.7220   19.2120   17.9160 C   0  0  0  0  0  0  0  0  0  0  0  0
   27.0770   20.6170   17.4920 C   0  0  0  0  0  0  0  0  0  0  0  0
   27.8370   21.3280   18.1450 O   0  0  0  0  0  0  0  0  0  0  0  0
   26.4900   21.0790   16.3420 N   0  0  0  0  0  0  0  0  0  0  0  0
   25.9740   20.2960   15.3340 C   0  0  0  0  0  0  0  0  0  0  0  0
   25.9110   20.7280   14.1860 O   0  0  0  0  0  0  0  0  0  0  0  0
   23.9980   17.4450   14.4260 C   0  0  0  0  0  0  0  0  0  0  0  0
   23.0640   17.3920   15.2020 O   0  0  0  0  0  0  0  0  0  0  0  0
   23.7990   14.9570    8.4260 N   0  0  0  0  0  0  0  0  0  0  0  0
   24.0690   14.5570    7.1690 C   0  0  0  0  0  0  0  0  0  0  0  0
   25.2840   14.7630    6.5350 C   0  0  0  0  0  0  0  0  0  0  0  0
   25.5590   14.3390    5.2160 C   0  0  0  0  0  0  0  0  0  0  0  0
   25.1380   11.2660    3.9170 C   0  0  0  0  0  0  0  0  0  0  0  0
   24.7000   10.8130    5.0740 N   0  0  0  0  0  0  0  0  0  0  0  0
   24.7464    9.1845    8.6779 H   0  0  0  0  0  0  0  0  0  0  0  0
   23.8606    9.4192    7.1330 H   0  0  0  0  0  0  0  0  0  0  0  0
   25.4708    8.6230    7.1330 H   0  0  0  0  0  0  0  0  0  0  0  0
   24.9071   11.5222    7.9191 H   0  0  0  0  0  0  0  0  0  0  0  0
   26.5255   10.6977    7.8761 H   0  0  0  0  0  0  0  0  0  0  0  0
   27.6384   12.1870    5.8395 H   0  0  0  0  0  0  0  0  0  0  0  0
   28.7620   15.4548    4.9826 H   0  0  0  0  0  0  0  0  0  0  0  0
   28.2543   16.1922    7.2988 H   0  0  0  0  0  0  0  0  0  0  0  0
   22.5386   15.1645   10.5703 H   0  0  0  0  0  0  0  0  0  0  0  0
   22.0726   15.9213   12.9107 H   0  0  0  0  0  0  0  0  0  0  0  0
   26.4530   17.0503   10.7071 H   0  0  0  0  0  0  0  0  0  0  0  0
   27.0271   17.5229   13.5943 H   0  0  0  0  0  0  0  0  0  0  0  0
   26.3005   19.0105   13.0357 H   0  0  0  0  0  0  0  0  0  0  0  0
   24.5593   18.9749   16.2986 H   0  0  0  0  0  0  0  0  0  0  0  0
   26.2288   17.3043   17.0429 H   0  0  0  0  0  0  0  0  0  0  0  0
   27.5215   18.2073   16.1844 H   0  0  0  0  0  0  0  0  0  0  0  0
   25.7774   19.2347   18.4792 H   0  0  0  0  0  0  0  0  0  0  0  0
   27.5369   18.8201   18.5425 H   0  0  0  0  0  0  0  0  0  0  0  0
   26.4299   22.1002   16.2220 H   0  0  0  0  0  0  0  0  0  0  0  0
   23.2772   14.0351    6.6115 H   0  0  0  0  0  0  0  0  0  0  0  0
   24.7875   13.8142    4.6334 H   0  0  0  0  0  0  0  0  0  0  0  0
   24.5798   11.2132    2.9706 H   0  0  0  0  0  0  0  0  0  0  0  0
  1  2  1  0
  2  3  1  0
  3  4  2  0
  4  5  1  0
  5  6  1  0
  6  7  2  0
  6  8  2  0
  6  9  1  0
  9 10  1  0
 10 11  2  0
 11 12  1  0
 12 13  2  0
 13 14  1  0
 14 15  2  0
 15 16  1  0
 16 17  2  0
 17 18  1  0
 18 19  2  0
 19 20  1  0
 20 21  2  0
 20 22  1  0
 22 23  1  0
 23 24  1  0
 24 25  1  0
 25 26  1  0
 26 27  1  0
 27 28  2  0
 27 29  1  0
 29 30  1  0
 30 31  2  0
 23 32  1  0
 32 33  2  0
 15 34  1  0
 34 35  2  0
 35 36  1  0
 36 37  2  0
  5 38  1  0
 38 39  2  0
 39  3  1  0
 37 10  1  0
 36 13  1  0
 21 16  1  0
 30 24  1  0
 32 19  1  0
  1 40  1  0
  1 41  1  0
  1 42  1  0
  2 43  1  0
  2 44  1  0
  4 45  1  0
 11 46  1  0
 12 47  1  0
 17 48  1  0
 18 49  1  0
 21 50  1  0
 22 51  1  0
 22 52  1  0
 24 53  1  1
 25 54  1  0
 25 55  1  0
 26 56  1  0
 26 57  1  0
 29 58  1  0
 35 59  1  0
 37 60  1  0
 38 61  1  0
M  END
>  <meeko>  (926) 
{"is_sidechain": [true], "free_energy": -11.14, "intermolecular_energy": 0.0, "internal_energy": -11.14, "cluster_size": 5, "cluster_id": 1, "rank_in_cluster": 1}

>  <_RMSD_MCS_to_ref>  (926) 
1.331642135777393

$$$$
ligand
     RDKit          3D

 55 59  0  0  0  0  0  0  0  0999 V2000
   24.8540    9.4020    7.6050 C   0  0  0  0  0  0  0  0  0  0  0  0
   25.5230   10.7550    7.4270 C   0  0  0  0  0  0  0  0  0  0  0  0
   25.0550   11.4540    6.2000 C   0  0  0  0  0  0  0  0  0  0  0  0
   25.4080   12.7030    5.7250 C   0  0  0  0  0  0  0  0  0  0  0  0
   24.6780   12.8470    4.5790 N   0  0  0  0  0  0  0  0  0  0  0  0
   24.5260   14.2550    3.6810 S   0  0  0  0  0  6  0  0  0  0  0  0
   24.9800   13.9360    2.3420 O   0  0  0  0  0  0  0  0  0  0  0  0
   23.2040   14.7840    3.9550 O   0  0  0  0  0  0  0  0  0  0  0  0
   25.5970   15.4550    4.2250 C   0  0  0  0  0  0  0  0  0  0  0  0
   26.4850   16.1860    3.4330 C   0  0  0  0  0  0  0  0  0  0  0  0
   27.2040   17.0550    4.1500 N   0  0  0  0  0  0  0  0  0  0  0  0
   26.7720   16.8830    5.4250 N   0  0  0  0  0  0  0  0  0  0  0  0
   27.2000   17.5370    6.5720 C   0  0  0  0  0  0  0  0  0  0  0  0
   26.6690   17.2310    7.7640 C   0  0  0  0  0  0  0  0  0  0  0  0
   25.6100   16.1580    7.7810 C   0  0  0  0  0  0  0  0  0  0  0  0
   24.9880   15.7780    8.9470 N   0  0  0  0  0  0  0  0  0  0  0  0
   25.0930   16.4390   10.1920 C   0  0  0  0  0  0  0  0  0  0  0  0
   23.9610   16.4730   11.0170 C   0  0  0  0  0  0  0  0  0  0  0  0
   23.9970   17.0960   12.2680 C   0  0  0  0  0  0  0  0  0  0  0  0
   25.1730   17.6990   12.7310 C   0  0  0  0  0  0  0  0  0  0  0  0
   25.2360   18.3890   14.0840 C   0  0  1  0  0  0  0  0  0  0  0  0
   26.3220   17.7560   14.9600 C   0  0  0  0  0  0  0  0  0  0  0  0
   26.3360   18.4240   16.3250 C   0  0  0  0  0  0  0  0  0  0  0  0
   26.5420   19.9120   16.1990 C   0  0  0  0  0  0  0  0  0  0  0  0
   27.0240   20.5860   17.1040 O   0  0  0  0  0  0  0  0  0  0  0  0
   26.1010   20.4940   15.0380 N   0  0  0  0  0  0  0  0  0  0  0  0
   25.4460   19.9000   13.9830 C   0  0  0  0  0  0  0  0  0  0  0  0
   25.0150   20.5940   13.0650 O   0  0  0  0  0  0  0  0  0  0  0  0
   26.3060   17.6660   11.9070 C   0  0  0  0  0  0  0  0  0  0  0  0
   26.2650   17.0420   10.6550 C   0  0  0  0  0  0  0  0  0  0  0  0
   25.1910   15.5640    6.6860 N   0  0  0  0  0  0  0  0  0  0  0  0
   25.7770   15.9090    5.5060 C   0  0  0  0  0  0  0  0  0  0  0  0
   23.9050   11.7430    4.4050 C   0  0  0  0  0  0  0  0  0  0  0  0
   24.1210   10.8670    5.3660 N   0  0  0  0  0  0  0  0  0  0  0  0
   24.7464    9.1845    8.6779 H   0  0  0  0  0  0  0  0  0  0  0  0
   23.8606    9.4192    7.1330 H   0  0  0  0  0  0  0  0  0  0  0  0
   25.4708    8.6230    7.1330 H   0  0  0  0  0  0  0  0  0  0  0  0
   25.2938   11.3817    8.3014 H   0  0  0  0  0  0  0  0  0  0  0  0
   26.6057   10.5871    7.3289 H   0  0  0  0  0  0  0  0  0  0  0  0
   26.1158   13.4186    6.1687 H   0  0  0  0  0  0  0  0  0  0  0  0
   26.5816   16.0610    2.3444 H   0  0  0  0  0  0  0  0  0  0  0  0
   27.9790   18.3105    6.5024 H   0  0  0  0  0  0  0  0  0  0  0  0
   26.9904   17.7383    8.6856 H   0  0  0  0  0  0  0  0  0  0  0  0
   24.3933   14.9378    8.9099 H   0  0  0  0  0  0  0  0  0  0  0  0
   23.0281   16.0015   10.6745 H   0  0  0  0  0  0  0  0  0  0  0  0
   23.0930   17.1127   12.8945 H   0  0  0  0  0  0  0  0  0  0  0  0
   24.2525   18.2408   14.5538 H   0  0  0  0  0  0  0  0  0  0  0  0
   26.1142   16.6826   15.0808 H   0  0  0  0  0  0  0  0  0  0  0  0
   27.3019   17.8918   14.4789 H   0  0  0  0  0  0  0  0  0  0  0  0
   25.3756   18.2355   16.8271 H   0  0  0  0  0  0  0  0  0  0  0  0
   27.1673   18.0046   16.9107 H   0  0  0  0  0  0  0  0  0  0  0  0
   26.2830   21.5034   14.9436 H   0  0  0  0  0  0  0  0  0  0  0  0
   27.2397   18.1367   12.2487 H   0  0  0  0  0  0  0  0  0  0  0  0
   27.1679   17.0261   10.0269 H   0  0  0  0  0  0  0  0  0  0  0  0
   23.1963   11.6000    3.5760 H   0  0  0  0  0  0  0  0  0  0  0  0
  1  2  1  0
  2  3  1  0
  3  4  2  0
  4  5  1  0
  5  6  1  0
  6  7  2  0
  6  8  2  0
  6  9  1  0
  9 10  1  0
 10 11  2  0
 11 12  1  0
 12 13  1  0
 13 14  2  0
 14 15  1  0
 15 16  1  0
 16 17  1  0
 17 18  2  0
 18 19  1  0
 19 20  2  0
 20 21  1  0
 21 22  1  0
 22 23  1  0
 23 24  1  0
 24 25  2  0
 24 26  1  0
 26 27  1  0
 27 28  2  0
 20 29  1  0
 29 30  2  0
 15 31  2  0
 31 32  1  0
  5 33  1  0
 33 34  2  0
 34  3  1  0
 32  9  2  0
 32 12  1  0
 30 17  1  0
 27 21  1  0
  1 35  1  0
  1 36  1  0
  1 37  1  0
  2 38  1  0
  2 39  1  0
  4 40  1  0
 10 41  1  0
 13 42  1  0
 14 43  1  0
 16 44  1  0
 18 45  1  0
 19 46  1  0
 21 47  1  1
 22 48  1  0
 22 49  1  0
 23 50  1  0
 23 51  1  0
 26 52  1  0
 29 53  1  0
 30 54  1  0
 33 55  1  0
M  END
>  <meeko>  (927) 
{"is_sidechain": [true], "free_energy": -11.14, "intermolecular_energy": 0.0, "internal_energy": -11.14, "cluster_size": 17, "cluster_id": 1, "rank_in_cluster": 1}

>  <_RMSD_MCS_to_ref>  (927) 
0.6214411677705293

$$$$
ligand
     RDKit          3D

 48 51  0  0  0  0  0  0  0  0999 V2000
   24.8710    9.6160    7.7820 C   0  0  0  0  0  0  0  0  0  0  0  0
   25.4240   10.9650    7.3490 C   0  0  0  0  0  0  0  0  0  0  0  0
   26.4540   11.4800    8.2910 C   0  0  0  0  0  0  0  0  0  0  0  0
   27.2870   12.5740    8.1550 C   0  0  0  0  0  0  0  0  0  0  0  0
   28.0360   12.5650    9.2970 N   0  0  0  0  0  0  0  0  0  0  0  0
   29.1660   13.7390    9.7300 S   0  0  0  0  0  6  0  0  0  0  0  0
   29.8810   14.0020    8.4940 O   0  0  0  0  0  0  0  0  0  0  0  0
   29.8620   13.2170   10.8910 O   0  0  0  0  0  0  0  0  0  0  0  0
   28.3820   15.0930   10.1360 O   0  0  0  0  0  0  0  0  0  0  0  0
   27.0480   15.1910   10.2280 C   0  0  0  0  0  0  0  0  0  0  0  0
   26.6930   15.8470   11.3750 N   0  0  0  0  0  0  0  0  0  0  0  0
   25.4260   16.0260   11.5890 C   0  0  0  0  0  0  0  0  0  0  0  0
   24.9830   16.7410   12.8640 C   0  0  0  0  0  0  0  0  0  0  0  0
   23.8130   16.7750   13.2100 O   0  0  0  0  0  0  0  0  0  0  0  0
   26.0170   17.3480   13.5400 N   0  0  0  0  0  0  0  0  0  0  0  0
   25.7770   18.2470   14.6580 C   0  0  1  0  0  0  0  0  0  0  0  0
   26.3350   17.6970   15.9660 C   0  0  0  0  0  0  0  0  0  0  0  0
   26.0840   18.6960   17.0850 C   0  0  0  0  0  0  0  0  0  0  0  0
   26.6650   20.0510   16.7520 C   0  0  0  0  0  0  0  0  0  0  0  0
   27.1190   20.8000   17.6110 O   0  0  0  0  0  0  0  0  0  0  0  0
   26.6320   20.4250   15.4330 N   0  0  0  0  0  0  0  0  0  0  0  0
   26.4380   19.5960   14.3570 C   0  0  0  0  0  0  0  0  0  0  0  0
   26.7640   19.9390   13.2220 O   0  0  0  0  0  0  0  0  0  0  0  0
   24.4660   15.5470   10.6570 C   0  0  0  0  0  0  0  0  0  0  0  0
   23.0890   15.5540   10.5720 C   0  0  0  0  0  0  0  0  0  0  0  0
   22.7460   14.9020    9.3610 C   0  0  0  0  0  0  0  0  0  0  0  0
   23.9260   14.5220    8.7550 C   0  0  0  0  0  0  0  0  0  0  0  0
   24.9590   14.9160    9.5570 N   0  0  0  0  0  0  0  0  0  0  0  0
   26.2670   14.7250    9.3140 N   0  0  0  0  0  0  0  0  0  0  0  0
   27.6400   11.5340   10.0860 C   0  0  0  0  0  0  0  0  0  0  0  0
   26.6830   10.8460    9.4970 N   0  0  0  0  0  0  0  0  0  0  0  0
   24.8497    9.5640    8.8806 H   0  0  0  0  0  0  0  0  0  0  0  0
   23.8507    9.4948    7.3893 H   0  0  0  0  0  0  0  0  0  0  0  0
   25.5127    8.8135    7.3893 H   0  0  0  0  0  0  0  0  0  0  0  0
   25.8773   10.8584    6.3524 H   0  0  0  0  0  0  0  0  0  0  0  0
   24.5904   11.6826    7.3356 H   0  0  0  0  0  0  0  0  0  0  0  0
   27.3357   13.2878    7.3194 H   0  0  0  0  0  0  0  0  0  0  0  0
   26.9863   17.1607   13.2464 H   0  0  0  0  0  0  0  0  0  0  0  0
   24.6894   18.3581   14.7792 H   0  0  0  0  0  0  0  0  0  0  0  0
   25.8374   16.7457   16.2055 H   0  0  0  0  0  0  0  0  0  0  0  0
   27.4170   17.5290   15.8608 H   0  0  0  0  0  0  0  0  0  0  0  0
   24.9994   18.7987   17.2370 H   0  0  0  0  0  0  0  0  0  0  0  0
   26.5715   18.3241   17.9983 H   0  0  0  0  0  0  0  0  0  0  0  0
   26.7659   21.4259   15.2303 H   0  0  0  0  0  0  0  0  0  0  0  0
   22.3901   15.9838   11.3047 H   0  0  0  0  0  0  0  0  0  0  0  0
   21.7297   14.7310    8.9764 H   0  0  0  0  0  0  0  0  0  0  0  0
   24.0185   13.9942    7.7943 H   0  0  0  0  0  0  0  0  0  0  0  0
   28.0588   11.3052   11.0771 H   0  0  0  0  0  0  0  0  0  0  0  0
  1  2  1  0
  2  3  1  0
  3  4  2  0
  4  5  1  0
  5  6  1  0
  6  7  2  0
  6  8  2  0
  6  9  1  0
  9 10  1  0
 10 11  1  0
 11 12  2  0
 12 13  1  0
 13 14  2  0
 13 15  1  0
 15 16  1  0
 16 17  1  0
 17 18  1  0
 18 19  1  0
 19 20  2  0
 19 21  1  0
 21 22  1  0
 22 23  2  0
 12 24  1  0
 24 25  2  0
 25 26  1  0
 26 27  2  0
 27 28  1  0
 28 29  1  0
  5 30  1  0
 30 31  2  0
 31  3  1  0
 29 10  2  0
 22 16  1  0
 28 24  1  0
  1 32  1  0
  1 33  1  0
  1 34  1  0
  2 35  1  0
  2 36  1  0
  4 37  1  0
 15 38  1  0
 16 39  1  1
 17 40  1  0
 17 41  1  0
 18 42  1  0
 18 43  1  0
 21 44  1  0
 25 45  1  0
 26 46  1  0
 27 47  1  0
 30 48  1  0
M  END
>  <meeko>  (928) 
{"is_sidechain": [true], "free_energy": -11.14, "intermolecular_energy": 0.0, "internal_energy": -11.14, "cluster_size": 13, "cluster_id": 1, "rank_in_cluster": 1}

>  <_RMSD_MCS_to_ref>  (928) 
1.1594157053351386

$$$$
ligand
     RDKit          3D

 51 54  0  0  0  0  0  0  0  0999 V2000
   24.8710    9.6160    7.7820 C   0  0  0  0  0  0  0  0  0  0  0  0
   25.4240   10.9650    7.3490 C   0  0  0  0  0  0  0  0  0  0  0  0
   26.4500   11.4810    8.2950 C   0  0  0  0  0  0  0  0  0  0  0  0
   27.0550   12.7220    8.3270 C   0  0  0  0  0  0  0  0  0  0  0  0
   27.8910   12.6610    9.4050 N   0  0  0  0  0  0  0  0  0  0  0  0
   28.9770   13.8470    9.8880 S   0  0  0  0  0  6  0  0  0  0  0  0
   29.7610   14.1810    8.7140 O   0  0  0  0  0  0  0  0  0  0  0  0
   29.5940   13.3360   11.1010 O   0  0  0  0  0  0  0  0  0  0  0  0
   27.9710   15.2420   10.3150 C   0  0  0  0  0  0  0  0  0  0  0  0
   26.6820   15.0530   10.7820 C   0  0  0  0  0  0  0  0  0  0  0  0
   25.9410   16.1970   11.0690 C   0  0  0  0  0  0  0  0  0  0  0  0
   24.5680   16.0830   11.5010 C   0  0  0  0  0  0  0  0  0  0  0  0
   23.4530   15.6220   10.7670 C   0  0  0  0  0  0  0  0  0  0  0  0
   22.3350   15.6180   11.4910 N   0  0  0  0  0  0  0  0  0  0  0  0
   22.7350   16.0730   12.6890 N   0  0  0  0  0  0  0  0  0  0  0  0
   24.0710   16.3910   12.7610 C   0  0  0  0  0  0  0  0  0  0  0  0
   24.6150   16.9100   13.9920 C   0  0  0  0  0  0  0  0  0  0  0  0
   24.8110   16.1930   14.9680 O   0  0  0  0  0  0  0  0  0  0  0  0
   24.8750   18.2550   14.0260 N   0  0  0  0  0  0  0  0  0  0  0  0
   25.2440   18.9500   15.2490 C   0  0  1  0  0  0  0  0  0  0  0  0
   26.3020   18.1980   16.0470 C   0  0  0  0  0  0  0  0  0  0  0  0
   26.6920   19.0180   17.2680 C   0  0  0  0  0  0  0  0  0  0  0  0
   27.1600   20.4000   16.8740 C   0  0  0  0  0  0  0  0  0  0  0  0
   28.0370   20.9990   17.4890 O   0  0  0  0  0  0  0  0  0  0  0  0
   26.5310   20.9790   15.8020 N   0  0  0  0  0  0  0  0  0  0  0  0
   25.7990   20.3210   14.8470 C   0  0  0  0  0  0  0  0  0  0  0  0
   25.5990   20.8160   13.7370 O   0  0  0  0  0  0  0  0  0  0  0  0
   26.5190   17.4590   10.9070 C   0  0  0  0  0  0  0  0  0  0  0  0
   27.8230   17.5320   10.4450 C   0  0  0  0  0  0  0  0  0  0  0  0
   28.5650   16.4500   10.1350 N   0  0  0  0  0  0  0  0  0  0  0  0
   27.8150   11.4210    9.9550 C   0  0  0  0  0  0  0  0  0  0  0  0
   26.9320   10.6820    9.3120 N   0  0  0  0  0  0  0  0  0  0  0  0
   24.8497    9.5640    8.8806 H   0  0  0  0  0  0  0  0  0  0  0  0
   23.8507    9.4948    7.3893 H   0  0  0  0  0  0  0  0  0  0  0  0
   25.5127    8.8135    7.3893 H   0  0  0  0  0  0  0  0  0  0  0  0
   25.8812   10.8578    6.3543 H   0  0  0  0  0  0  0  0  0  0  0  0
   24.5900   11.6821    7.3308 H   0  0  0  0  0  0  0  0  0  0  0  0
   26.8990   13.5672    7.6405 H   0  0  0  0  0  0  0  0  0  0  0  0
   26.2620   14.0458   10.9202 H   0  0  0  0  0  0  0  0  0  0  0  0
   23.5023   15.3022    9.7157 H   0  0  0  0  0  0  0  0  0  0  0  0
   22.0939   16.1755   13.4886 H   0  0  0  0  0  0  0  0  0  0  0  0
   24.8064   18.7947   13.1514 H   0  0  0  0  0  0  0  0  0  0  0  0
   24.3548   19.0352   15.8909 H   0  0  0  0  0  0  0  0  0  0  0  0
   25.8969   17.2279   16.3706 H   0  0  0  0  0  0  0  0  0  0  0  0
   27.1885   18.0325   15.4172 H   0  0  0  0  0  0  0  0  0  0  0  0
   25.8193   19.1106   17.9312 H   0  0  0  0  0  0  0  0  0  0  0  0
   27.5182   18.5047   17.7818 H   0  0  0  0  0  0  0  0  0  0  0  0
   26.6160   22.0009   15.7052 H   0  0  0  0  0  0  0  0  0  0  0  0
   25.9522   18.3723   11.1407 H   0  0  0  0  0  0  0  0  0  0  0  0
   28.2775   18.5265   10.3246 H   0  0  0  0  0  0  0  0  0  0  0  0
   28.4077   11.0807   10.8169 H   0  0  0  0  0  0  0  0  0  0  0  0
  1  2  1  0
  2  3  1  0
  3  4  2  0
  4  5  1  0
  5  6  1  0
  6  7  2  0
  6  8  2  0
  6  9  1  0
  9 10  2  0
 10 11  1  0
 11 12  1  0
 12 13  1  0
 13 14  2  0
 14 15  1  0
 15 16  1  0
 16 17  1  0
 17 18  2  0
 17 19  1  0
 19 20  1  0
 20 21  1  0
 21 22  1  0
 22 23  1  0
 23 24  2  0
 23 25  1  0
 25 26  1  0
 26 27  2  0
 11 28  2  0
 28 29  1  0
 29 30  2  0
  5 31  1  0
 31 32  2  0
 32  3  1  0
 30  9  1  0
 16 12  2  0
 26 20  1  0
  1 33  1  0
  1 34  1  0
  1 35  1  0
  2 36  1  0
  2 37  1  0
  4 38  1  0
 10 39  1  0
 13 40  1  0
 15 41  1  0
 19 42  1  0
 20 43  1  1
 21 44  1  0
 21 45  1  0
 22 46  1  0
 22 47  1  0
 25 48  1  0
 28 49  1  0
 29 50  1  0
 31 51  1  0
M  END
>  <meeko>  (929) 
{"is_sidechain": [true], "free_energy": -11.14, "intermolecular_energy": 0.0, "internal_energy": -11.14, "cluster_size": 4, "cluster_id": 1, "rank_in_cluster": 1}

>  <_RMSD_MCS_to_ref>  (929) 
1.1018707829061545

$$$$
ligand
     RDKit          3D

 57 61  0  0  0  0  0  0  0  0999 V2000
   24.8540    9.4020    7.6050 C   0  0  0  0  0  0  0  0  0  0  0  0
   25.5230   10.7550    7.4270 C   0  0  0  0  0  0  0  0  0  0  0  0
   24.9480   11.5210    6.2890 C   0  0  0  0  0  0  0  0  0  0  0  0
   25.6010   12.2280    5.2990 C   0  0  0  0  0  0  0  0  0  0  0  0
   24.5960   12.7140    4.5120 N   0  0  0  0  0  0  0  0  0  0  0  0
   24.7980   13.7440    3.2080 S   0  0  0  0  0  6  0  0  0  0  0  0
   23.8060   13.3890    2.2110 O   0  0  0  0  0  0  0  0  0  0  0  0
   26.2190   13.7240    2.9110 O   0  0  0  0  0  0  0  0  0  0  0  0
   24.4280   15.3740    3.7150 C   0  0  0  0  0  0  0  0  0  0  0  0
   23.6610   16.2210    2.9960 N   0  0  0  0  0  0  0  0  0  0  0  0
   23.5990   17.3260    3.7520 N   0  0  0  0  0  0  0  0  0  0  0  0
   24.3150   17.2340    4.9080 C   0  0  0  0  0  0  0  0  0  0  0  0
   24.8720   15.9690    4.9250 C   0  0  0  0  0  0  0  0  0  0  0  0
   25.7810   15.4120    5.9030 C   0  0  0  0  0  0  0  0  0  0  0  0
   26.8540   14.9430    5.5360 O   0  0  0  0  0  0  0  0  0  0  0  0
   25.3990   15.4370    7.2270 N   0  0  0  0  0  0  0  0  0  0  0  0
   24.2140   14.6360    7.6380 C   0  0  0  0  0  0  0  0  0  0  0  0
   24.0760   15.1250    9.0030 C   0  0  0  0  0  0  0  0  0  0  0  0
   23.2680   14.9060   10.0570 N   0  0  0  0  0  0  0  0  0  0  0  0
   23.6150   15.6820   11.1190 N   0  0  0  0  0  0  0  0  0  0  0  0
   24.6760   16.4130   10.6830 C   0  0  0  0  0  0  0  0  0  0  0  0
   25.3600   17.3980   11.5280 C   0  0  0  0  0  0  0  0  0  0  0  0
   26.3570   18.0130   11.1600 O   0  0  0  0  0  0  0  0  0  0  0  0
   24.7730   17.5700   12.7600 N   0  0  0  0  0  0  0  0  0  0  0  0
   25.1720   18.6170   13.6790 C   0  0  2  0  0  0  0  0  0  0  0  0
   26.6890   18.7480   13.7680 C   0  0  0  0  0  0  0  0  0  0  0  0
   27.0470   19.8450   14.7590 C   0  0  0  0  0  0  0  0  0  0  0  0
   26.4280   19.5850   16.1110 C   0  0  0  0  0  0  0  0  0  0  0  0
   26.9730   19.9140   17.1600 O   0  0  0  0  0  0  0  0  0  0  0  0
   25.1930   18.9870   16.1160 N   0  0  0  0  0  0  0  0  0  0  0  0
   24.6120   18.3090   15.0710 C   0  0  0  0  0  0  0  0  0  0  0  0
   23.6840   17.5260   15.2680 O   0  0  0  0  0  0  0  0  0  0  0  0
   24.9740   16.0800    9.3600 C   0  0  0  0  0  0  0  0  0  0  0  0
   25.8920   16.3970    8.2670 C   0  0  0  0  0  0  0  0  0  0  0  0
   23.4020   12.3490    5.0420 C   0  0  0  0  0  0  0  0  0  0  0  0
   23.5810   11.6050    6.1160 N   0  0  0  0  0  0  0  0  0  0  0  0
   24.7464    9.1845    8.6779 H   0  0  0  0  0  0  0  0  0  0  0  0
   23.8606    9.4192    7.1330 H   0  0  0  0  0  0  0  0  0  0  0  0
   25.4708    8.6230    7.1330 H   0  0  0  0  0  0  0  0  0  0  0  0
   25.3915   11.3393    8.3497 H   0  0  0  0  0  0  0  0  0  0  0  0
   26.5875   10.5796    7.2123 H   0  0  0  0  0  0  0  0  0  0  0  0
   26.6847   12.3681    5.1727 H   0  0  0  0  0  0  0  0  0  0  0  0
   23.0622   18.1636    3.4852 H   0  0  0  0  0  0  0  0  0  0  0  0
   24.4275   18.0131    5.6763 H   0  0  0  0  0  0  0  0  0  0  0  0
   23.3288   14.8639    7.0260 H   0  0  0  0  0  0  0  0  0  0  0  0
   24.3180   13.5460    7.5325 H   0  0  0  0  0  0  0  0  0  0  0  0
   22.4860   14.2357   10.0591 H   0  0  0  0  0  0  0  0  0  0  0  0
   24.0183   16.9278   13.0411 H   0  0  0  0  0  0  0  0  0  0  0  0
   24.7703   19.5686   13.3008 H   0  0  0  0  0  0  0  0  0  0  0  0
   27.1200   17.7940   14.1058 H   0  0  0  0  0  0  0  0  0  0  0  0
   27.0933   19.0032   12.7773 H   0  0  0  0  0  0  0  0  0  0  0  0
   28.1408   19.8870   14.8676 H   0  0  0  0  0  0  0  0  0  0  0  0
   26.6574   20.7998   14.3762 H   0  0  0  0  0  0  0  0  0  0  0  0
   24.6483   19.0526   16.9877 H   0  0  0  0  0  0  0  0  0  0  0  0
   25.7907   17.4420    7.9388 H   0  0  0  0  0  0  0  0  0  0  0  0
   26.9593   16.3027    8.5160 H   0  0  0  0  0  0  0  0  0  0  0  0
   22.4214   12.6338    4.6331 H   0  0  0  0  0  0  0  0  0  0  0  0
  1  2  1  0
  2  3  1  0
  3  4  2  0
  4  5  1  0
  5  6  1  0
  6  7  2  0
  6  8  2  0
  6  9  1  0
  9 10  2  0
 10 11  1  0
 11 12  1  0
 12 13  2  0
 13 14  1  0
 14 15  2  0
 14 16  1  0
 16 17  1  0
 17 18  1  0
 18 19  1  0
 19 20  1  0
 20 21  2  0
 21 22  1  0
 22 23  2  0
 22 24  1  0
 24 25  1  0
 25 26  1  0
 26 27  1  0
 27 28  1  0
 28 29  2  0
 28 30  1  0
 30 31  1  0
 31 32  2  0
 21 33  1  0
 33 34  1  0
  5 35  1  0
 35 36  2  0
 36  3  1  0
 13  9  1  0
 34 16  1  0
 33 18  2  0
 31 25  1  0
  1 37  1  0
  1 38  1  0
  1 39  1  0
  2 40  1  0
  2 41  1  0
  4 42  1  0
 11 43  1  0
 12 44  1  0
 17 45  1  0
 17 46  1  0
 19 47  1  0
 24 48  1  0
 25 49  1  6
 26 50  1  0
 26 51  1  0
 27 52  1  0
 27 53  1  0
 30 54  1  0
 34 55  1  0
 34 56  1  0
 35 57  1  0
M  END
>  <meeko>  (930) 
{"is_sidechain": [true], "free_energy": -11.13, "intermolecular_energy": 0.0, "internal_energy": -11.13, "cluster_size": 6, "cluster_id": 2, "rank_in_cluster": 1}

>  <_RMSD_MCS_to_ref>  (930) 
1.9357149985355682

$$$$
ligand
     RDKit          3D

 64 69  0  0  0  0  0  0  0  0999 V2000
   24.8540    9.4020    7.6050 C   0  0  0  0  0  0  0  0  0  0  0  0
   25.5230   10.7550    7.4270 C   0  0  0  0  0  0  0  0  0  0  0  0
   25.4830   11.2200    6.0140 C   0  0  0  0  0  0  0  0  0  0  0  0
   25.0640   12.4360    5.5110 C   0  0  0  0  0  0  0  0  0  0  0  0
   25.2130   12.3100    4.1590 N   0  0  0  0  0  0  0  0  0  0  0  0
   25.0600   13.5450    3.0300 S   0  0  0  0  0  6  0  0  0  0  0  0
   23.6370   13.6840    2.7870 O   0  0  0  0  0  0  0  0  0  0  0  0
   26.0020   13.2250    1.9740 O   0  0  0  0  0  0  0  0  0  0  0  0
   25.6350   14.9750    3.9040 C   0  0  0  0  0  0  0  0  0  0  0  0
   24.7290   16.0130    4.2090 C   0  0  0  0  0  0  0  0  0  0  0  0
   25.1690   17.1480    4.8970 C   0  0  0  0  0  0  0  0  0  0  0  0
   26.4970   17.1930    5.2580 C   0  0  0  0  0  0  0  0  0  0  0  0
   27.3700   16.1720    4.9670 C   0  0  0  0  0  0  0  0  0  0  0  0
   26.9770   15.0400    4.2950 C   0  0  0  0  0  0  0  0  0  0  0  0
   28.5360   16.8460    5.6320 C   0  0  0  0  0  0  0  0  0  0  0  0
   27.5500   18.0310    5.9450 C   0  0  2  0  0  0  0  0  0  0  0  0
   27.1970   18.3140    7.4380 C   0  0  0  0  0  0  0  0  0  0  0  0
   27.4580   19.3760    8.0070 O   0  0  0  0  0  0  0  0  0  0  0  0
   26.5410   17.2440    8.0330 N   0  0  0  0  0  0  0  0  0  0  0  0
   26.0880   17.1300    9.3640 C   0  0  0  0  0  0  0  0  0  0  0  0
   25.1150   16.2020    9.7890 C   0  0  0  0  0  0  0  0  0  0  0  0
   24.6940   16.1380   11.1270 C   0  0  0  0  0  0  0  0  0  0  0  0
   25.2640   17.0090   12.0340 C   0  0  0  0  0  0  0  0  0  0  0  0
   26.2250   17.9190   11.6100 C   0  0  0  0  0  0  0  0  0  0  0  0
   26.6520   18.0080   10.2980 C   0  0  0  0  0  0  0  0  0  0  0  0
   26.6460   18.7110   12.7690 C   0  0  0  0  0  0  0  0  0  0  0  0
   27.4200   19.6460   12.7150 O   0  0  0  0  0  0  0  0  0  0  0  0
   25.9850   18.1930   13.8710 N   0  0  0  0  0  0  0  0  0  0  0  0
   25.9450   18.8330   15.1820 C   0  0  1  0  0  0  0  0  0  0  0  0
   27.0520   18.3670   16.1280 C   0  0  0  0  0  0  0  0  0  0  0  0
   26.8800   19.0450   17.4780 C   0  0  0  0  0  0  0  0  0  0  0  0
   26.8770   20.5500   17.3380 C   0  0  0  0  0  0  0  0  0  0  0  0
   27.1750   21.2930   18.2680 O   0  0  0  0  0  0  0  0  0  0  0  0
   26.4410   21.0560   16.1390 N   0  0  0  0  0  0  0  0  0  0  0  0
   25.9540   20.3640   15.0540 C   0  0  0  0  0  0  0  0  0  0  0  0
   25.4690   20.9680   14.0990 O   0  0  0  0  0  0  0  0  0  0  0  0
   25.0020   17.1850   13.4910 C   0  0  0  0  0  0  0  0  0  0  0  0
   25.7470   11.0920    3.8830 C   0  0  0  0  0  0  0  0  0  0  0  0
   25.9140   10.3990    4.9900 N   0  0  0  0  0  0  0  0  0  0  0  0
   24.7464    9.1845    8.6779 H   0  0  0  0  0  0  0  0  0  0  0  0
   23.8606    9.4192    7.1330 H   0  0  0  0  0  0  0  0  0  0  0  0
   25.4708    8.6230    7.1330 H   0  0  0  0  0  0  0  0  0  0  0  0
   25.0044   11.4923    8.0574 H   0  0  0  0  0  0  0  0  0  0  0  0
   26.5785   10.6509    7.7186 H   0  0  0  0  0  0  0  0  0  0  0  0
   24.6945   13.3074    6.0714 H   0  0  0  0  0  0  0  0  0  0  0  0
   23.6751   15.9291    3.9051 H   0  0  0  0  0  0  0  0  0  0  0  0
   24.4818   17.9718    5.1401 H   0  0  0  0  0  0  0  0  0  0  0  0
   27.6824   14.2251    4.0752 H   0  0  0  0  0  0  0  0  0  0  0  0
   28.9281   16.3245    6.5176 H   0  0  0  0  0  0  0  0  0  0  0  0
   29.4957   17.0014    5.1173 H   0  0  0  0  0  0  0  0  0  0  0  0
   27.8208   19.0605    5.6678 H   0  0  0  0  0  0  0  0  0  0  0  0
   26.3629   16.4313    7.4258 H   0  0  0  0  0  0  0  0  0  0  0  0
   24.6751   15.5114    9.0544 H   0  0  0  0  0  0  0  0  0  0  0  0
   23.9301   15.4129   11.4443 H   0  0  0  0  0  0  0  0  0  0  0  0
   27.4109   18.7453    9.9972 H   0  0  0  0  0  0  0  0  0  0  0  0
   24.9952   18.5155   15.6371 H   0  0  0  0  0  0  0  0  0  0  0  0
   26.9915   17.2760   16.2547 H   0  0  0  0  0  0  0  0  0  0  0  0
   28.0325   18.6320   15.7056 H   0  0  0  0  0  0  0  0  0  0  0  0
   25.9259   18.7241   17.9216 H   0  0  0  0  0  0  0  0  0  0  0  0
   27.7239   18.7570   18.1222 H   0  0  0  0  0  0  0  0  0  0  0  0
   26.4836   22.0803   16.0391 H   0  0  0  0  0  0  0  0  0  0  0  0
   25.1638   16.2456   14.0400 H   0  0  0  0  0  0  0  0  0  0  0  0
   23.9659   17.4769   13.7173 H   0  0  0  0  0  0  0  0  0  0  0  0
   26.0041   10.7344    2.8750 H   0  0  0  0  0  0  0  0  0  0  0  0
  1  2  1  0
  2  3  1  0
  3  4  2  0
  4  5  1  0
  5  6  1  0
  6  7  2  0
  6  8  2  0
  6  9  1  0
  9 10  2  0
 10 11  1  0
 11 12  2  0
 12 13  1  0
 13 14  2  0
 13 15  1  0
 15 16  1  0
 16 17  1  0
 17 18  2  0
 17 19  1  0
 19 20  1  0
 20 21  2  0
 21 22  1  0
 22 23  2  0
 23 24  1  0
 24 25  2  0
 24 26  1  0
 26 27  2  0
 26 28  1  0
 28 29  1  0
 29 30  1  0
 30 31  1  0
 31 32  1  0
 32 33  2  0
 32 34  1  0
 34 35  1  0
 35 36  2  0
 28 37  1  0
  5 38  1  0
 38 39  2  0
 39  3  1  0
 14  9  1  0
 25 20  1  0
 35 29  1  0
 16 12  1  0
 37 23  1  0
  1 40  1  0
  1 41  1  0
  1 42  1  0
  2 43  1  0
  2 44  1  0
  4 45  1  0
 10 46  1  0
 11 47  1  0
 14 48  1  0
 15 49  1  0
 15 50  1  0
 16 51  1  6
 19 52  1  0
 21 53  1  0
 22 54  1  0
 25 55  1  0
 29 56  1  1
 30 57  1  0
 30 58  1  0
 31 59  1  0
 31 60  1  0
 34 61  1  0
 37 62  1  0
 37 63  1  0
 38 64  1  0
M  END
>  <meeko>  (931) 
{"is_sidechain": [true], "free_energy": -11.13, "intermolecular_energy": 0.0, "internal_energy": -11.13, "cluster_size": 12, "cluster_id": 1, "rank_in_cluster": 1}

>  <_RMSD_MCS_to_ref>  (931) 
1.1991866514433853

$$$$
ligand
     RDKit          3D

 56 60  0  0  0  0  0  0  0  0999 V2000
   24.8710    9.6160    7.7820 C   0  0  0  0  0  0  0  0  0  0  0  0
   25.4240   10.9650    7.3490 C   0  0  0  0  0  0  0  0  0  0  0  0
   26.9120   10.9890    7.3500 C   0  0  0  0  0  0  0  0  0  0  0  0
   27.7640   12.0610    7.1660 C   0  0  0  0  0  0  0  0  0  0  0  0
   29.0110   11.5130    7.2530 N   0  0  0  0  0  0  0  0  0  0  0  0
   30.4640   12.3570    7.1140 S   0  0  0  0  0  6  0  0  0  0  0  0
   30.6710   12.4410    5.6770 O   0  0  0  0  0  0  0  0  0  0  0  0
   31.4260   11.6600    7.9480 O   0  0  0  0  0  0  0  0  0  0  0  0
   30.2610   13.8780    7.6550 O   0  0  0  0  0  0  0  0  0  0  0  0
   29.0650   14.2550    8.2070 C   0  0  0  0  0  0  0  0  0  0  0  0
   28.1900   14.9640    7.4020 C   0  0  0  0  0  0  0  0  0  0  0  0
   26.9520   15.3280    7.9290 C   0  0  0  0  0  0  0  0  0  0  0  0
   26.6140   14.9680    9.2380 C   0  0  0  0  0  0  0  0  0  0  0  0
   25.3270   15.3370    9.8280 C   0  0  0  0  0  0  0  0  0  0  0  0
   24.1140   14.9770    9.2050 C   0  0  0  0  0  0  0  0  0  0  0  0
   22.8650   15.3340    9.7500 C   0  0  0  0  0  0  0  0  0  0  0  0
   22.7930   16.0590   10.9370 C   0  0  0  0  0  0  0  0  0  0  0  0
   23.9860   16.3980   11.5440 C   0  0  0  0  0  0  0  0  0  0  0  0
   25.2330   16.0540   11.0170 C   0  0  0  0  0  0  0  0  0  0  0  0
   26.3140   16.5680   11.9140 C   0  0  0  0  0  0  0  0  0  0  0  0
   25.5680   17.1580   13.0180 N   0  0  0  0  0  0  0  0  0  0  0  0
   26.1710   18.0190   14.0270 C   0  0  1  0  0  0  0  0  0  0  0  0
   25.4040   19.3250   14.2150 C   0  0  0  0  0  0  0  0  0  0  0  0
   26.1420   20.2050   15.2130 C   0  0  0  0  0  0  0  0  0  0  0  0
   26.3620   19.4800   16.5210 C   0  0  0  0  0  0  0  0  0  0  0  0
   26.3130   20.0520   17.6060 O   0  0  0  0  0  0  0  0  0  0  0  0
   26.6380   18.1390   16.4410 N   0  0  0  0  0  0  0  0  0  0  0  0
   26.3000   17.3170   15.3890 C   0  0  0  0  0  0  0  0  0  0  0  0
   26.1100   16.1180   15.5750 O   0  0  0  0  0  0  0  0  0  0  0  0
   24.2000   17.1450   12.7870 C   0  0  0  0  0  0  0  0  0  0  0  0
   23.3230   17.6460   13.4630 O   0  0  0  0  0  0  0  0  0  0  0  0
   27.5640   14.2370    9.9490 C   0  0  0  0  0  0  0  0  0  0  0  0
   28.7750   13.8730    9.4620 N   0  0  0  0  0  0  0  0  0  0  0  0
   28.9020   10.1810    7.4880 C   0  0  0  0  0  0  0  0  0  0  0  0
   27.6330    9.8270    7.5510 N   0  0  0  0  0  0  0  0  0  0  0  0
   24.8497    9.5640    8.8806 H   0  0  0  0  0  0  0  0  0  0  0  0
   23.8507    9.4948    7.3893 H   0  0  0  0  0  0  0  0  0  0  0  0
   25.5127    8.8135    7.3893 H   0  0  0  0  0  0  0  0  0  0  0  0
   25.0668   11.1844    6.3320 H   0  0  0  0  0  0  0  0  0  0  0  0
   25.0736   11.7202    8.0679 H   0  0  0  0  0  0  0  0  0  0  0  0
   27.4984   13.1138    6.9899 H   0  0  0  0  0  0  0  0  0  0  0  0
   28.4650   15.2335    6.3716 H   0  0  0  0  0  0  0  0  0  0  0  0
   26.2400   15.8990    7.3150 H   0  0  0  0  0  0  0  0  0  0  0  0
   24.1440   14.4017    8.2679 H   0  0  0  0  0  0  0  0  0  0  0  0
   21.9396   15.0379    9.2342 H   0  0  0  0  0  0  0  0  0  0  0  0
   21.8257   16.3495   11.3729 H   0  0  0  0  0  0  0  0  0  0  0  0
   26.9594   15.7494   12.2652 H   0  0  0  0  0  0  0  0  0  0  0  0
   26.9893   17.2798   11.4166 H   0  0  0  0  0  0  0  0  0  0  0  0
   27.1762   18.2505   13.6449 H   0  0  0  0  0  0  0  0  0  0  0  0
   25.3280   19.8481   13.2504 H   0  0  0  0  0  0  0  0  0  0  0  0
   24.3944   19.1071   14.5934 H   0  0  0  0  0  0  0  0  0  0  0  0
   27.1176   20.4870   14.7903 H   0  0  0  0  0  0  0  0  0  0  0  0
   25.5315   21.0990   15.4080 H   0  0  0  0  0  0  0  0  0  0  0  0
   27.1393   17.7115   17.2328 H   0  0  0  0  0  0  0  0  0  0  0  0
   27.3134   13.9346   10.9765 H   0  0  0  0  0  0  0  0  0  0  0  0
   29.7521    9.4934    7.6089 H   0  0  0  0  0  0  0  0  0  0  0  0
  1  2  1  0
  2  3  1  0
  3  4  2  0
  4  5  1  0
  5  6  1  0
  6  7  2  0
  6  8  2  0
  6  9  1  0
  9 10  1  0
 10 11  2  0
 11 12  1  0
 12 13  2  0
 13 14  1  0
 14 15  2  0
 15 16  1  0
 16 17  2  0
 17 18  1  0
 18 19  2  0
 19 20  1  0
 20 21  1  0
 21 22  1  0
 22 23  1  0
 23 24  1  0
 24 25  1  0
 25 26  2  0
 25 27  1  0
 27 28  1  0
 28 29  2  0
 21 30  1  0
 30 31  2  0
 13 32  1  0
 32 33  2  0
  5 34  1  0
 34 35  2  0
 35  3  1  0
 33 10  1  0
 19 14  1  0
 28 22  1  0
 30 18  1  0
  1 36  1  0
  1 37  1  0
  1 38  1  0
  2 39  1  0
  2 40  1  0
  4 41  1  0
 11 42  1  0
 12 43  1  0
 15 44  1  0
 16 45  1  0
 17 46  1  0
 20 47  1  0
 20 48  1  0
 22 49  1  6
 23 50  1  0
 23 51  1  0
 24 52  1  0
 24 53  1  0
 27 54  1  0
 32 55  1  0
 34 56  1  0
M  END
>  <meeko>  (932) 
{"is_sidechain": [true], "free_energy": -11.13, "intermolecular_energy": 0.0, "internal_energy": -11.13, "cluster_size": 14, "cluster_id": 1, "rank_in_cluster": 1}

>  <_RMSD_MCS_to_ref>  (932) 
1.904977588086304

$$$$
ligand
     RDKit          3D

 62 67  0  0  0  0  0  0  0  0999 V2000
   24.8710    9.6170    7.7820 C   0  0  0  0  0  0  0  0  0  0  0  0
   25.4240   10.9640    7.3490 C   0  0  0  0  0  0  0  0  0  0  0  0
   26.5660   11.4030    8.1990 C   0  0  0  0  0  0  0  0  0  0  0  0
   27.5930   12.2740    7.8890 C   0  0  0  0  0  0  0  0  0  0  0  0
   28.3240   12.3440    9.0380 N   0  0  0  0  0  0  0  0  0  0  0  0
   29.7290   13.2450    9.2610 S   0  0  0  0  0  6  0  0  0  0  0  0
   30.7130   12.5690    8.4360 O   0  0  0  0  0  0  0  0  0  0  0  0
   29.8870   13.3330   10.7010 O   0  0  0  0  0  0  0  0  0  0  0  0
   29.4480   14.7210    8.6120 O   0  0  0  0  0  0  0  0  0  0  0  0
   28.7930   14.7960    7.4120 C   0  0  0  0  0  0  0  0  0  0  0  0
   27.4420   15.1920    7.3580 C   0  0  0  0  0  0  0  0  0  0  0  0
   26.6980   15.5400    8.5750 C   0  0  0  0  0  0  0  0  0  0  0  0
   25.4960   14.8590    8.8920 C   0  0  0  0  0  0  0  0  0  0  0  0
   24.7960   15.1330   10.0690 C   0  0  0  0  0  0  0  0  0  0  0  0
   25.3270   16.0860   10.9140 C   0  0  0  0  0  0  0  0  0  0  0  0
   26.5000   16.7790   10.6250 C   0  0  0  0  0  0  0  0  0  0  0  0
   27.1910   16.5250    9.4520 C   0  0  0  0  0  0  0  0  0  0  0  0
   26.8100   17.7320   11.7300 C   0  0  0  0  0  0  0  0  0  0  0  0
   25.7680   17.4410   12.7050 N   0  0  0  0  0  0  0  0  0  0  0  0
   25.5870   18.2720   13.8880 C   0  0  2  0  0  0  0  0  0  0  0  0
   26.2760   19.6330   13.7970 C   0  0  0  0  0  0  0  0  0  0  0  0
   25.9850   20.4320   15.0570 C   0  0  0  0  0  0  0  0  0  0  0  0
   26.4160   19.6810   16.2940 C   0  0  0  0  0  0  0  0  0  0  0  0
   26.6810   20.2530   17.3480 O   0  0  0  0  0  0  0  0  0  0  0  0
   26.4220   18.3110   16.2140 N   0  0  0  0  0  0  0  0  0  0  0  0
   26.0290   17.5240   15.1550 C   0  0  0  0  0  0  0  0  0  0  0  0
   25.9490   16.3030   15.2860 O   0  0  0  0  0  0  0  0  0  0  0  0
   24.8360   16.5400   12.2190 C   0  0  0  0  0  0  0  0  0  0  0  0
   23.7990   16.1670   12.7310 O   0  0  0  0  0  0  0  0  0  0  0  0
   26.8080   15.2620    6.0980 C   0  0  0  0  0  0  0  0  0  0  0  0
   27.4900   14.9300    4.9230 C   0  0  0  0  0  0  0  0  0  0  0  0
   28.8020   14.5180    5.0300 C   0  0  0  0  0  0  0  0  0  0  0  0
   29.4540   14.4460    6.2490 C   0  0  0  0  0  0  0  0  0  0  0  0
   30.8600   14.0440    6.0250 C   0  0  0  0  0  0  0  0  0  0  0  0
   30.7480   13.5570    4.5800 C   0  0  0  0  0  0  0  0  0  0  0  0
   29.5870   14.1620    3.9640 O   0  0  0  0  0  0  0  0  0  0  0  0
   27.8030   11.4920    9.9560 C   0  0  0  0  0  0  0  0  0  0  0  0
   26.7070   10.9290    9.4900 N   0  0  0  0  0  0  0  0  0  0  0  0
   24.8498    9.5653    8.8806 H   0  0  0  0  0  0  0  0  0  0  0  0
   23.8505    9.4962    7.3895 H   0  0  0  0  0  0  0  0  0  0  0  0
   25.5122    8.8140    7.3895 H   0  0  0  0  0  0  0  0  0  0  0  0
   25.7671   10.8876    6.3067 H   0  0  0  0  0  0  0  0  0  0  0  0
   24.6204   11.7080    7.4525 H   0  0  0  0  0  0  0  0  0  0  0  0
   27.7780   12.7912    6.9360 H   0  0  0  0  0  0  0  0  0  0  0  0
   25.1070   14.0999    8.1974 H   0  0  0  0  0  0  0  0  0  0  0  0
   23.8593   14.6103   10.3126 H   0  0  0  0  0  0  0  0  0  0  0  0
   28.1079   17.0824    9.2100 H   0  0  0  0  0  0  0  0  0  0  0  0
   27.8093   17.5423   12.1488 H   0  0  0  0  0  0  0  0  0  0  0  0
   26.8254   18.7837   11.4081 H   0  0  0  0  0  0  0  0  0  0  0  0
   24.5085   18.4803   13.9465 H   0  0  0  0  0  0  0  0  0  0  0  0
   27.3619   19.4886   13.6967 H   0  0  0  0  0  0  0  0  0  0  0  0
   25.8968   20.1787   12.9204 H   0  0  0  0  0  0  0  0  0  0  0  0
   26.5291   21.3868   15.0096 H   0  0  0  0  0  0  0  0  0  0  0  0
   24.9003   20.6050   15.1159 H   0  0  0  0  0  0  0  0  0  0  0  0
   26.7619   17.8107   17.0477 H   0  0  0  0  0  0  0  0  0  0  0  0
   25.7577   15.5838    6.0396 H   0  0  0  0  0  0  0  0  0  0  0  0
   26.9949   14.9955    3.9429 H   0  0  0  0  0  0  0  0  0  0  0  0
   31.5514   14.8943    6.1203 H   0  0  0  0  0  0  0  0  0  0  0  0
   31.2596   13.3097    6.7399 H   0  0  0  0  0  0  0  0  0  0  0  0
   31.6521   13.8448    4.0234 H   0  0  0  0  0  0  0  0  0  0  0  0
   30.6463   12.4618    4.5654 H   0  0  0  0  0  0  0  0  0  0  0  0
   28.2347   11.2986   10.9491 H   0  0  0  0  0  0  0  0  0  0  0  0
  1  2  1  0
  2  3  1  0
  3  4  2  0
  4  5  1  0
  5  6  1  0
  6  7  2  0
  6  8  2  0
  6  9  1  0
  9 10  1  0
 10 11  1  0
 11 12  1  0
 12 13  2  0
 13 14  1  0
 14 15  2  0
 15 16  1  0
 16 17  2  0
 16 18  1  0
 18 19  1  0
 19 20  1  0
 20 21  1  0
 21 22  1  0
 22 23  1  0
 23 24  2  0
 23 25  1  0
 25 26  1  0
 26 27  2  0
 19 28  1  0
 28 29  2  0
 11 30  2  0
 30 31  1  0
 31 32  2  0
 32 33  1  0
 33 34  1  0
 34 35  1  0
 35 36  1  0
  5 37  1  0
 37 38  2  0
 38  3  1  0
 33 10  2  0
 17 12  1  0
 26 20  1  0
 36 32  1  0
 28 15  1  0
  1 39  1  0
  1 40  1  0
  1 41  1  0
  2 42  1  0
  2 43  1  0
  4 44  1  0
 13 45  1  0
 14 46  1  0
 17 47  1  0
 18 48  1  0
 18 49  1  0
 20 50  1  1
 21 51  1  0
 21 52  1  0
 22 53  1  0
 22 54  1  0
 25 55  1  0
 30 56  1  0
 31 57  1  0
 34 58  1  0
 34 59  1  0
 35 60  1  0
 35 61  1  0
 37 62  1  0
M  END
>  <meeko>  (933) 
{"is_sidechain": [true], "free_energy": -11.13, "intermolecular_energy": 0.0, "internal_energy": -11.13, "cluster_size": 8, "cluster_id": 1, "rank_in_cluster": 1}

>  <_RMSD_MCS_to_ref>  (933) 
1.9454471952416705

$$$$
ligand
     RDKit          3D

 62 67  0  0  0  0  0  0  0  0999 V2000
   24.8710    9.6160    7.7820 C   0  0  0  0  0  0  0  0  0  0  0  0
   25.4240   10.9650    7.3490 C   0  0  0  0  0  0  0  0  0  0  0  0
   25.6120   11.0460    5.8760 C   0  0  0  0  0  0  0  0  0  0  0  0
   24.9000   11.7830    4.9500 C   0  0  0  0  0  0  0  0  0  0  0  0
   25.5250   11.5170    3.7650 N   0  0  0  0  0  0  0  0  0  0  0  0
   25.0380   12.0720    2.2520 S   0  0  0  0  0  6  0  0  0  0  0  0
   23.5890   12.0000    2.3170 O   0  0  0  0  0  0  0  0  0  0  0  0
   25.7640   11.2730    1.2790 O   0  0  0  0  0  0  0  0  0  0  0  0
   25.4440   13.6530    2.1220 O   0  0  0  0  0  0  0  0  0  0  0  0
   26.3550   14.1920    3.0020 C   0  0  0  0  0  0  0  0  0  0  0  0
   27.6330   14.4480    2.4990 C   0  0  0  0  0  0  0  0  0  0  0  0
   28.5980   15.0040    3.3300 C   0  0  0  0  0  0  0  0  0  0  0  0
   28.2770   15.3120    4.6520 C   0  0  0  0  0  0  0  0  0  0  0  0
   26.9810   15.0730    5.1470 C   0  0  0  0  0  0  0  0  0  0  0  0
   26.6310   15.3890    6.4690 C   0  0  0  0  0  0  0  0  0  0  0  0
   25.3350   15.1610    6.9440 C   0  0  0  0  0  0  0  0  0  0  0  0
   24.9440   15.4800    8.3240 C   0  0  0  0  0  0  0  0  0  0  0  0
   23.7920   14.8860    8.9010 C   0  0  0  0  0  0  0  0  0  0  0  0
   23.3960   15.1760   10.2110 C   0  0  0  0  0  0  0  0  0  0  0  0
   24.1760   16.0620   10.9260 C   0  0  0  0  0  0  0  0  0  0  0  0
   25.3120   16.6620   10.3930 C   0  0  0  0  0  0  0  0  0  0  0  0
   25.7050   16.3840    9.0930 C   0  0  0  0  0  0  0  0  0  0  0  0
   25.9220   17.5780   11.3990 C   0  0  0  0  0  0  0  0  0  0  0  0
   25.0940   17.3580   12.5770 N   0  0  0  0  0  0  0  0  0  0  0  0
   25.1990   18.2230   13.7480 C   0  0  2  0  0  0  0  0  0  0  0  0
   25.8350   19.5810   13.4560 C   0  0  0  0  0  0  0  0  0  0  0  0
   25.8380   20.4200   14.7240 C   0  0  0  0  0  0  0  0  0  0  0  0
   26.5540   19.7090   15.8490 C   0  0  0  0  0  0  0  0  0  0  0  0
   27.0400   20.3140   16.8000 O   0  0  0  0  0  0  0  0  0  0  0  0
   26.5640   18.3380   15.8050 N   0  0  0  0  0  0  0  0  0  0  0  0
   25.9370   17.5170   14.8960 C   0  0  0  0  0  0  0  0  0  0  0  0
   25.8970   16.3010   15.0820 O   0  0  0  0  0  0  0  0  0  0  0  0
   24.0020   16.5490   12.2980 C   0  0  0  0  0  0  0  0  0  0  0  0
   23.0540   16.2830   13.0110 O   0  0  0  0  0  0  0  0  0  0  0  0
   24.4380   14.6160    6.0320 C   0  0  0  0  0  0  0  0  0  0  0  0
   24.7390   14.2970    4.7490 N   0  0  0  0  0  0  0  0  0  0  0  0
   25.9950   14.5120    4.3130 C   0  0  0  0  0  0  0  0  0  0  0  0
   26.5070   10.6030    3.9710 C   0  0  0  0  0  0  0  0  0  0  0  0
   26.6070   10.3150    5.2540 N   0  0  0  0  0  0  0  0  0  0  0  0
   24.8497    9.5640    8.8806 H   0  0  0  0  0  0  0  0  0  0  0  0
   23.8507    9.4948    7.3893 H   0  0  0  0  0  0  0  0  0  0  0  0
   25.5127    8.8135    7.3893 H   0  0  0  0  0  0  0  0  0  0  0  0
   24.7223   11.7526    7.6608 H   0  0  0  0  0  0  0  0  0  0  0  0
   26.4076   11.0960    7.8237 H   0  0  0  0  0  0  0  0  0  0  0  0
   24.0307   12.4337    5.1261 H   0  0  0  0  0  0  0  0  0  0  0  0
   27.8737   14.2110    1.4522 H   0  0  0  0  0  0  0  0  0  0  0  0
   29.6103   15.2003    2.9471 H   0  0  0  0  0  0  0  0  0  0  0  0
   29.0424   15.7450    5.3128 H   0  0  0  0  0  0  0  0  0  0  0  0
   27.3864   15.8221    7.1411 H   0  0  0  0  0  0  0  0  0  0  0  0
   23.1958   14.1804    8.3038 H   0  0  0  0  0  0  0  0  0  0  0  0
   22.4996   14.7166   10.6531 H   0  0  0  0  0  0  0  0  0  0  0  0
   26.5991   16.8626    8.6669 H   0  0  0  0  0  0  0  0  0  0  0  0
   26.9705   17.3095   11.5955 H   0  0  0  0  0  0  0  0  0  0  0  0
   25.9474   18.6285   11.0736 H   0  0  0  0  0  0  0  0  0  0  0  0
   24.1634   18.4279   14.0572 H   0  0  0  0  0  0  0  0  0  0  0  0
   26.8689   19.4353   13.1098 H   0  0  0  0  0  0  0  0  0  0  0  0
   25.2573   20.0972   12.6751 H   0  0  0  0  0  0  0  0  0  0  0  0
   26.3466   21.3741   14.5215 H   0  0  0  0  0  0  0  0  0  0  0  0
   24.7955   20.5929   15.0293 H   0  0  0  0  0  0  0  0  0  0  0  0
   27.1068   17.8657   16.5420 H   0  0  0  0  0  0  0  0  0  0  0  0
   23.4099   14.4302    6.3762 H   0  0  0  0  0  0  0  0  0  0  0  0
   27.1317   10.1641    3.1790 H   0  0  0  0  0  0  0  0  0  0  0  0
  1  2  1  0
  2  3  1  0
  3  4  2  0
  4  5  1  0
  5  6  1  0
  6  7  2  0
  6  8  2  0
  6  9  1  0
  9 10  1  0
 10 11  2  0
 11 12  1  0
 12 13  2  0
 13 14  1  0
 14 15  2  0
 15 16  1  0
 16 17  1  0
 17 18  2  0
 18 19  1  0
 19 20  2  0
 20 21  1  0
 21 22  2  0
 21 23  1  0
 23 24  1  0
 24 25  1  0
 25 26  1  0
 26 27  1  0
 27 28  1  0
 28 29  2  0
 28 30  1  0
 30 31  1  0
 31 32  2  0
 24 33  1  0
 33 34  2  0
 16 35  2  0
 35 36  1  0
 36 37  2  0
  5 38  1  0
 38 39  2  0
 39  3  1  0
 37 10  1  0
 37 14  1  0
 22 17  1  0
 31 25  1  0
 33 20  1  0
  1 40  1  0
  1 41  1  0
  1 42  1  0
  2 43  1  0
  2 44  1  0
  4 45  1  0
 11 46  1  0
 12 47  1  0
 13 48  1  0
 15 49  1  0
 18 50  1  0
 19 51  1  0
 22 52  1  0
 23 53  1  0
 23 54  1  0
 25 55  1  1
 26 56  1  0
 26 57  1  0
 27 58  1  0
 27 59  1  0
 30 60  1  0
 35 61  1  0
 38 62  1  0
M  END
>  <meeko>  (934) 
{"is_sidechain": [true], "free_energy": -11.13, "intermolecular_energy": 0.0, "internal_energy": -11.13, "cluster_size": 1, "cluster_id": 2, "rank_in_cluster": 1}

>  <_RMSD_MCS_to_ref>  (934) 
1.6969547337572248

$$$$
ligand
     RDKit          3D

 55 58  0  0  0  0  0  0  0  0999 V2000
   24.8710    9.6160    7.7820 C   0  0  0  0  0  0  0  0  0  0  0  0
   25.4240   10.9650    7.3490 C   0  0  0  0  0  0  0  0  0  0  0  0
   26.5950   11.3820    8.1680 C   0  0  0  0  0  0  0  0  0  0  0  0
   27.6850   12.1420    7.7950 C   0  0  0  0  0  0  0  0  0  0  0  0
   28.4470   12.2140    8.9270 N   0  0  0  0  0  0  0  0  0  0  0  0
   29.7400   13.2730    9.1870 S   0  0  0  0  0  6  0  0  0  0  0  0
   30.6620   12.5100   10.0070 O   0  0  0  0  0  0  0  0  0  0  0  0
   30.1240   13.7370    7.8660 O   0  0  0  0  0  0  0  0  0  0  0  0
   29.1870   14.5320   10.0770 O   0  0  0  0  0  0  0  0  0  0  0  0
   27.9420   15.0290    9.8010 C   0  0  0  0  0  0  0  0  0  0  0  0
   27.5690   15.3060    8.4940 C   0  0  0  0  0  0  0  0  0  0  0  0
   26.2860   15.7930    8.2420 C   0  0  0  0  0  0  0  0  0  0  0  0
   25.3810   16.0360    9.2860 C   0  0  0  0  0  0  0  0  0  0  0  0
   25.7630   15.7350   10.6070 C   0  0  0  0  0  0  0  0  0  0  0  0
   27.0620   15.2590   10.8560 C   0  0  0  0  0  0  0  0  0  0  0  0
   24.7840   15.9150   11.7580 C   0  0  1  0  0  0  0  0  0  0  0  0
   25.1820   17.0890   12.6590 C   0  0  0  0  0  0  0  0  0  0  0  0
   26.2090   17.7470   12.5160 O   0  0  0  0  0  0  0  0  0  0  0  0
   24.2840   17.3520   13.6710 N   0  0  0  0  0  0  0  0  0  0  0  0
   24.5930   18.2870   14.7410 C   0  0  1  0  0  0  0  0  0  0  0  0
   25.6920   17.7660   15.6590 C   0  0  0  0  0  0  0  0  0  0  0  0
   26.0000   18.8090   16.7220 C   0  0  0  0  0  0  0  0  0  0  0  0
   26.3660   20.1370   16.0980 C   0  0  0  0  0  0  0  0  0  0  0  0
   27.1820   20.9000   16.6050 O   0  0  0  0  0  0  0  0  0  0  0  0
   25.7140   20.4730   14.9390 N   0  0  0  0  0  0  0  0  0  0  0  0
   25.0460   19.6070   14.1090 C   0  0  0  0  0  0  0  0  0  0  0  0
   24.8200   19.8920   12.9320 O   0  0  0  0  0  0  0  0  0  0  0  0
   23.3440   16.0930   11.2630 C   0  0  0  0  0  0  0  0  0  0  0  0
   23.2980   17.0090   10.0500 C   0  0  0  0  0  0  0  0  0  0  0  0
   24.0740   16.4270    8.9640 N   0  0  0  0  0  0  0  0  0  0  0  0
   27.8090   11.5620    9.9340 C   0  0  0  0  0  0  0  0  0  0  0  0
   26.6820   11.0350    9.5020 N   0  0  0  0  0  0  0  0  0  0  0  0
   24.8497    9.5640    8.8806 H   0  0  0  0  0  0  0  0  0  0  0  0
   23.8507    9.4948    7.3893 H   0  0  0  0  0  0  0  0  0  0  0  0
   25.5127    8.8135    7.3893 H   0  0  0  0  0  0  0  0  0  0  0  0
   25.7339   10.8992    6.2956 H   0  0  0  0  0  0  0  0  0  0  0  0
   24.6312   11.7149    7.4871 H   0  0  0  0  0  0  0  0  0  0  0  0
   27.8929   12.5879    6.8112 H   0  0  0  0  0  0  0  0  0  0  0  0
   28.2757   15.1438    7.6668 H   0  0  0  0  0  0  0  0  0  0  0  0
   25.9781   15.9902    7.2045 H   0  0  0  0  0  0  0  0  0  0  0  0
   27.3854   15.0671   11.8897 H   0  0  0  0  0  0  0  0  0  0  0  0
   24.8278   14.9906   12.3526 H   0  0  0  0  0  0  0  0  0  0  0  0
   23.3714   16.8744   13.6693 H   0  0  0  0  0  0  0  0  0  0  0  0
   23.6900   18.4254   15.3538 H   0  0  0  0  0  0  0  0  0  0  0  0
   25.3560   16.8371   16.1430 H   0  0  0  0  0  0  0  0  0  0  0  0
   26.5983   17.5645   15.0690 H   0  0  0  0  0  0  0  0  0  0  0  0
   25.1134   18.9444   17.3588 H   0  0  0  0  0  0  0  0  0  0  0  0
   26.8558   18.4569   17.3167 H   0  0  0  0  0  0  0  0  0  0  0  0
   25.7267   21.4662   14.6663 H   0  0  0  0  0  0  0  0  0  0  0  0
   22.9333   15.1102   10.9883 H   0  0  0  0  0  0  0  0  0  0  0  0
   22.7481   16.5460   12.0690 H   0  0  0  0  0  0  0  0  0  0  0  0
   22.2542   17.1349    9.7266 H   0  0  0  0  0  0  0  0  0  0  0  0
   23.7233   17.9877   10.3170 H   0  0  0  0  0  0  0  0  0  0  0  0
   23.6862   16.3098    8.0170 H   0  0  0  0  0  0  0  0  0  0  0  0
   28.1818   11.4851   10.9660 H   0  0  0  0  0  0  0  0  0  0  0  0
  1  2  1  0
  2  3  1  0
  3  4  2  0
  4  5  1  0
  5  6  1  0
  6  7  2  0
  6  8  2  0
  6  9  1  0
  9 10  1  0
 10 11  2  0
 11 12  1  0
 12 13  2  0
 13 14  1  0
 14 15  2  0
 14 16  1  0
 16 17  1  0
 17 18  2  0
 17 19  1  0
 19 20  1  0
 20 21  1  0
 21 22  1  0
 22 23  1  0
 23 24  2  0
 23 25  1  0
 25 26  1  0
 26 27  2  0
 16 28  1  0
 28 29  1  0
 29 30  1  0
  5 31  1  0
 31 32  2  0
 32  3  1  0
 15 10  1  0
 26 20  1  0
 30 13  1  0
  1 33  1  0
  1 34  1  0
  1 35  1  0
  2 36  1  0
  2 37  1  0
  4 38  1  0
 11 39  1  0
 12 40  1  0
 15 41  1  0
 16 42  1  1
 19 43  1  0
 20 44  1  1
 21 45  1  0
 21 46  1  0
 22 47  1  0
 22 48  1  0
 25 49  1  0
 28 50  1  0
 28 51  1  0
 29 52  1  0
 29 53  1  0
 30 54  1  0
 31 55  1  0
M  END
>  <meeko>  (935) 
{"is_sidechain": [true], "free_energy": -11.13, "intermolecular_energy": 0.0, "internal_energy": -11.13, "cluster_size": 12, "cluster_id": 1, "rank_in_cluster": 1}

>  <_RMSD_MCS_to_ref>  (935) 
0.4675578395592713

$$$$
ligand
     RDKit          3D

 59 63  0  0  0  0  0  0  0  0999 V2000
   24.8540    9.4020    7.6050 C   0  0  0  0  0  0  0  0  0  0  0  0
   25.5230   10.7550    7.4270 C   0  0  0  0  0  0  0  0  0  0  0  0
   27.0090   10.6530    7.4020 C   0  0  0  0  0  0  0  0  0  0  0  0
   27.8830   11.0130    6.3970 C   0  0  0  0  0  0  0  0  0  0  0  0
   29.1140   10.6890    6.8910 N   0  0  0  0  0  0  0  0  0  0  0  0
   30.6060   11.0410    6.1850 S   0  0  0  0  0  6  0  0  0  0  0  0
   30.3710   10.9850    4.7550 O   0  0  0  0  0  0  0  0  0  0  0  0
   31.5270   10.1270    6.8340 O   0  0  0  0  0  0  0  0  0  0  0  0
   31.0750   12.5630    6.5510 O   0  0  0  0  0  0  0  0  0  0  0  0
   30.3960   13.6480    6.0610 C   0  0  0  0  0  0  0  0  0  0  0  0
   30.9310   14.2430    4.9150 C   0  0  0  0  0  0  0  0  0  0  0  0
   30.2920   15.3370    4.3400 C   0  0  0  0  0  0  0  0  0  0  0  0
   29.1060   15.8100    4.8960 C   0  0  0  0  0  0  0  0  0  0  0  0
   28.5680   15.2050    6.0370 C   0  0  0  0  0  0  0  0  0  0  0  0
   29.2040   14.1160    6.6390 C   0  0  0  0  0  0  0  0  0  0  0  0
   28.6750   13.4430    7.7530 N   0  0  0  0  0  0  0  0  0  0  0  0
   27.8310   13.9100    8.7300 C   0  0  0  0  0  0  0  0  0  0  0  0
   27.4810   13.1570    9.6370 O   0  0  0  0  0  0  0  0  0  0  0  0
   27.4600   15.3370    8.8090 C   0  0  0  0  0  0  0  0  0  0  0  0
   27.3070   15.8980   10.0890 C   0  0  0  0  0  0  0  0  0  0  0  0
   26.9520   17.2430   10.2350 C   0  0  0  0  0  0  0  0  0  0  0  0
   26.8260   17.8840   11.5710 C   0  0  0  0  0  0  0  0  0  0  0  0
   27.7940   18.4180   12.0990 O   0  0  0  0  0  0  0  0  0  0  0  0
   25.5950   17.7860   12.1790 N   0  0  0  0  0  0  0  0  0  0  0  0
   25.4020   18.2150   13.5580 C   0  0  1  0  0  0  0  0  0  0  0  0
   26.2990   17.4530   14.5260 C   0  0  0  0  0  0  0  0  0  0  0  0
   26.0840   17.9810   15.9360 C   0  0  0  0  0  0  0  0  0  0  0  0
   26.3140   19.4730   16.0070 C   0  0  0  0  0  0  0  0  0  0  0  0
   26.7680   20.0220   17.0070 O   0  0  0  0  0  0  0  0  0  0  0  0
   25.9570   20.2040   14.9020 N   0  0  0  0  0  0  0  0  0  0  0  0
   25.7190   19.7100   13.6440 C   0  0  0  0  0  0  0  0  0  0  0  0
   25.7440   20.4410   12.6530 O   0  0  0  0  0  0  0  0  0  0  0  0
   26.6960   18.0170    9.0980 C   0  0  0  0  0  0  0  0  0  0  0  0
   26.8370   17.4590    7.8270 C   0  0  0  0  0  0  0  0  0  0  0  0
   27.2440   16.1280    7.6870 C   0  0  0  0  0  0  0  0  0  0  0  0
   27.3230   15.6460    6.4110 O   0  0  0  0  0  0  0  0  0  0  0  0
   28.9730   10.1700    8.1370 C   0  0  0  0  0  0  0  0  0  0  0  0
   27.7020   10.1380    8.4800 N   0  0  0  0  0  0  0  0  0  0  0  0
   24.7464    9.1845    8.6779 H   0  0  0  0  0  0  0  0  0  0  0  0
   23.8606    9.4192    7.1330 H   0  0  0  0  0  0  0  0  0  0  0  0
   25.4708    8.6230    7.1330 H   0  0  0  0  0  0  0  0  0  0  0  0
   25.1828   11.1955    6.4782 H   0  0  0  0  0  0  0  0  0  0  0  0
   25.2436   11.3836    8.2854 H   0  0  0  0  0  0  0  0  0  0  0  0
   27.6429   11.4592    5.4206 H   0  0  0  0  0  0  0  0  0  0  0  0
   31.8552   13.8472    4.4687 H   0  0  0  0  0  0  0  0  0  0  0  0
   30.7207   15.8250    3.4523 H   0  0  0  0  0  0  0  0  0  0  0  0
   28.5890   16.6646    4.4352 H   0  0  0  0  0  0  0  0  0  0  0  0
   28.9613   12.4584    7.8507 H   0  0  0  0  0  0  0  0  0  0  0  0
   27.4675   15.2752   10.9814 H   0  0  0  0  0  0  0  0  0  0  0  0
   24.7978   17.4034   11.6508 H   0  0  0  0  0  0  0  0  0  0  0  0
   24.3598   18.0104   13.8444 H   0  0  0  0  0  0  0  0  0  0  0  0
   26.0487   16.3824   14.4929 H   0  0  0  0  0  0  0  0  0  0  0  0
   27.3516   17.5916   14.2382 H   0  0  0  0  0  0  0  0  0  0  0  0
   25.0515   17.7629   16.2463 H   0  0  0  0  0  0  0  0  0  0  0  0
   26.8049   17.4873   16.6043 H   0  0  0  0  0  0  0  0  0  0  0  0
   25.8581   21.2214   15.0290 H   0  0  0  0  0  0  0  0  0  0  0  0
   26.3834   19.0661    9.2062 H   0  0  0  0  0  0  0  0  0  0  0  0
   26.6279   18.0664    6.9341 H   0  0  0  0  0  0  0  0  0  0  0  0
   29.8031    9.8248    8.7709 H   0  0  0  0  0  0  0  0  0  0  0  0
  1  2  1  0
  2  3  1  0
  3  4  2  0
  4  5  1  0
  5  6  1  0
  6  7  2  0
  6  8  2  0
  6  9  1  0
  9 10  1  0
 10 11  2  0
 11 12  1  0
 12 13  2  0
 13 14  1  0
 14 15  2  0
 15 16  1  0
 16 17  1  0
 17 18  2  0
 17 19  1  0
 19 20  2  0
 20 21  1  0
 21 22  1  0
 22 23  2  0
 22 24  1  0
 24 25  1  0
 25 26  1  0
 26 27  1  0
 27 28  1  0
 28 29  2  0
 28 30  1  0
 30 31  1  0
 31 32  2  0
 21 33  2  0
 33 34  1  0
 34 35  2  0
 35 36  1  0
  5 37  1  0
 37 38  2  0
 38  3  1  0
 15 10  1  0
 35 19  1  0
 36 14  1  0
 31 25  1  0
  1 39  1  0
  1 40  1  0
  1 41  1  0
  2 42  1  0
  2 43  1  0
  4 44  1  0
 11 45  1  0
 12 46  1  0
 13 47  1  0
 16 48  1  0
 20 49  1  0
 24 50  1  0
 25 51  1  1
 26 52  1  0
 26 53  1  0
 27 54  1  0
 27 55  1  0
 30 56  1  0
 33 57  1  0
 34 58  1  0
 37 59  1  0
M  END
>  <meeko>  (936) 
{"is_sidechain": [true], "free_energy": -11.12, "intermolecular_energy": 0.0, "internal_energy": -11.12, "cluster_size": 10, "cluster_id": 1, "rank_in_cluster": 1}

>  <_RMSD_MCS_to_ref>  (936) 
1.1317748107385237

$$$$
ligand
     RDKit          3D

 54 58  0  0  0  0  0  0  0  0999 V2000
   24.8540    9.4020    7.6050 C   0  0  0  0  0  0  0  0  0  0  0  0
   25.5230   10.7550    7.4270 C   0  0  0  0  0  0  0  0  0  0  0  0
   24.9550   11.5170    6.2820 C   0  0  0  0  0  0  0  0  0  0  0  0
   24.9780   12.8780    6.0450 C   0  0  0  0  0  0  0  0  0  0  0  0
   24.2780   13.0280    4.8820 N   0  0  0  0  0  0  0  0  0  0  0  0
   24.1880   14.4370    3.9630 S   0  0  0  0  0  6  0  0  0  0  0  0
   22.7790   14.5860    3.6510 O   0  0  0  0  0  0  0  0  0  0  0  0
   25.1840   14.2650    2.9220 O   0  0  0  0  0  0  0  0  0  0  0  0
   24.6480   15.6440    4.9570 O   0  0  0  0  0  0  0  0  0  0  0  0
   25.9450   15.9530    5.1540 C   0  0  0  0  0  0  0  0  0  0  0  0
   27.0170   16.0420    4.2470 C   0  0  0  0  0  0  0  0  0  0  0  0
   28.1570   16.3650    4.8600 N   0  0  0  0  0  0  0  0  0  0  0  0
   27.8050   16.4760    6.1530 N   0  0  0  0  0  0  0  0  0  0  0  0
   26.4730   16.2360    6.3990 C   0  0  0  0  0  0  0  0  0  0  0  0
   25.8780   16.3110    7.7310 C   0  0  0  0  0  0  0  0  0  0  0  0
   24.6330   15.6900    7.9910 C   0  0  0  0  0  0  0  0  0  0  0  0
   24.0320   15.7410    9.2580 C   0  0  0  0  0  0  0  0  0  0  0  0
   24.6940   16.4200   10.2620 C   0  0  0  0  0  0  0  0  0  0  0  0
   25.9180   17.0290   10.0040 C   0  0  0  0  0  0  0  0  0  0  0  0
   26.5310   16.9960    8.7640 C   0  0  0  0  0  0  0  0  0  0  0  0
   26.3760   17.6740   11.2380 C   0  0  0  0  0  0  0  0  0  0  0  0
   27.3720   18.3650   11.3210 O   0  0  0  0  0  0  0  0  0  0  0  0
   25.4540   17.3560   12.2240 N   0  0  0  0  0  0  0  0  0  0  0  0
   25.4100   17.9850   13.5400 C   0  0  1  0  0  0  0  0  0  0  0  0
   26.3010   17.3040   14.5790 C   0  0  0  0  0  0  0  0  0  0  0  0
   26.1310   17.9990   15.9210 C   0  0  0  0  0  0  0  0  0  0  0  0
   26.4380   19.4750   15.8170 C   0  0  0  0  0  0  0  0  0  0  0  0
   26.7770   20.1430   16.7900 O   0  0  0  0  0  0  0  0  0  0  0  0
   26.2390   20.0620   14.5920 N   0  0  0  0  0  0  0  0  0  0  0  0
   25.7370   19.4840   13.4480 C   0  0  0  0  0  0  0  0  0  0  0  0
   25.4800   20.1750   12.4640 O   0  0  0  0  0  0  0  0  0  0  0  0
   24.2970   16.6580   11.6810 C   0  0  0  0  0  0  0  0  0  0  0  0
   23.9350   11.8020    4.4090 C   0  0  0  0  0  0  0  0  0  0  0  0
   24.3120   10.8610    5.2500 N   0  0  0  0  0  0  0  0  0  0  0  0
   24.7464    9.1845    8.6779 H   0  0  0  0  0  0  0  0  0  0  0  0
   23.8606    9.4192    7.1330 H   0  0  0  0  0  0  0  0  0  0  0  0
   25.4708    8.6230    7.1330 H   0  0  0  0  0  0  0  0  0  0  0  0
   25.3846   11.3423    8.3468 H   0  0  0  0  0  0  0  0  0  0  0  0
   26.5891   10.5798    7.2202 H   0  0  0  0  0  0  0  0  0  0  0  0
   25.4520   13.6618    6.6541 H   0  0  0  0  0  0  0  0  0  0  0  0
   26.9262   15.8667    3.1649 H   0  0  0  0  0  0  0  0  0  0  0  0
   28.4755   16.7199    6.8959 H   0  0  0  0  0  0  0  0  0  0  0  0
   24.1227   15.1529    7.1779 H   0  0  0  0  0  0  0  0  0  0  0  0
   23.0632   15.2550    9.4458 H   0  0  0  0  0  0  0  0  0  0  0  0
   27.4987   17.4910    8.5949 H   0  0  0  0  0  0  0  0  0  0  0  0
   24.3757   17.8613   13.8933 H   0  0  0  0  0  0  0  0  0  0  0  0
   26.0126   16.2467   14.6738 H   0  0  0  0  0  0  0  0  0  0  0  0
   27.3522   17.3685   14.2615 H   0  0  0  0  0  0  0  0  0  0  0  0
   25.0928   17.8720   16.2615 H   0  0  0  0  0  0  0  0  0  0  0  0
   26.8332   17.5477   16.6374 H   0  0  0  0  0  0  0  0  0  0  0  0
   26.4969   21.0566   14.5202 H   0  0  0  0  0  0  0  0  0  0  0  0
   24.1227   15.7087   12.2087 H   0  0  0  0  0  0  0  0  0  0  0  0
   23.3587   17.2230   11.7830 H   0  0  0  0  0  0  0  0  0  0  0  0
   23.4151   11.6203    3.4568 H   0  0  0  0  0  0  0  0  0  0  0  0
  1  2  1  0
  2  3  1  0
  3  4  2  0
  4  5  1  0
  5  6  1  0
  6  7  2  0
  6  8  2  0
  6  9  1  0
  9 10  1  0
 10 11  1  0
 11 12  2  0
 12 13  1  0
 13 14  1  0
 14 15  1  0
 15 16  2  0
 16 17  1  0
 17 18  2  0
 18 19  1  0
 19 20  2  0
 19 21  1  0
 21 22  2  0
 21 23  1  0
 23 24  1  0
 24 25  1  0
 25 26  1  0
 26 27  1  0
 27 28  2  0
 27 29  1  0
 29 30  1  0
 30 31  2  0
 23 32  1  0
  5 33  1  0
 33 34  2  0
 34  3  1  0
 14 10  2  0
 20 15  1  0
 30 24  1  0
 32 18  1  0
  1 35  1  0
  1 36  1  0
  1 37  1  0
  2 38  1  0
  2 39  1  0
  4 40  1  0
 11 41  1  0
 13 42  1  0
 16 43  1  0
 17 44  1  0
 20 45  1  0
 24 46  1  1
 25 47  1  0
 25 48  1  0
 26 49  1  0
 26 50  1  0
 29 51  1  0
 32 52  1  0
 32 53  1  0
 33 54  1  0
M  END
>  <meeko>  (937) 
{"is_sidechain": [true], "free_energy": -11.12, "intermolecular_energy": 0.0, "internal_energy": -11.12, "cluster_size": 9, "cluster_id": 1, "rank_in_cluster": 1}

>  <_RMSD_MCS_to_ref>  (937) 
1.1890322862638238

$$$$
ligand
     RDKit          3D

 60 64  0  0  0  0  0  0  0  0999 V2000
   24.8710    9.6160    7.7820 C   0  0  0  0  0  0  0  0  0  0  0  0
   25.4240   10.9650    7.3490 C   0  0  0  0  0  0  0  0  0  0  0  0
   25.1000   11.2770    5.9300 C   0  0  0  0  0  0  0  0  0  0  0  0
   25.6900   12.1960    5.0860 C   0  0  0  0  0  0  0  0  0  0  0  0
   25.0170   12.0480    3.9080 N   0  0  0  0  0  0  0  0  0  0  0  0
   25.1480   13.0500    2.5660 S   0  0  0  0  0  6  0  0  0  0  0  0
   26.1400   12.4410    1.7030 O   0  0  0  0  0  0  0  0  0  0  0  0
   23.7910   13.3110    2.1290 O   0  0  0  0  0  0  0  0  0  0  0  0
   25.8200   14.5530    3.2230 C   0  0  0  0  0  0  0  0  0  0  0  0
   26.7710   15.2620    2.4810 C   0  0  0  0  0  0  0  0  0  0  0  0
   27.3020   16.4430    2.9960 C   0  0  0  0  0  0  0  0  0  0  0  0
   26.8700   16.9200    4.2360 C   0  0  0  0  0  0  0  0  0  0  0  0
   25.8910   16.2270    4.9620 C   0  0  0  0  0  0  0  0  0  0  0  0
   25.4580   16.7800    6.2770 C   0  0  0  0  0  0  0  0  0  0  0  0
   25.2930   17.9900    6.3660 O   0  0  0  0  0  0  0  0  0  0  0  0
   25.2530   15.8370    7.2690 N   0  0  0  0  0  0  0  0  0  0  0  0
   24.8960   16.0790    8.6130 C   0  0  0  0  0  0  0  0  0  0  0  0
   23.7740   15.3730    9.1100 C   0  0  0  0  0  0  0  0  0  0  0  0
   23.3400   15.5360   10.4290 C   0  0  0  0  0  0  0  0  0  0  0  0
   24.0480   16.4120   11.2240 C   0  0  0  0  0  0  0  0  0  0  0  0
   25.1570   17.1130   10.7610 C   0  0  0  0  0  0  0  0  0  0  0  0
   25.5950   16.9540    9.4550 C   0  0  0  0  0  0  0  0  0  0  0  0
   25.7240   17.9560   11.8540 C   0  0  0  0  0  0  0  0  0  0  0  0
   24.7760   17.7430   12.9420 N   0  0  0  0  0  0  0  0  0  0  0  0
   25.0240   18.1590   14.3170 C   0  0  2  0  0  0  0  0  0  0  0  0
   25.8070   19.4660   14.3980 C   0  0  0  0  0  0  0  0  0  0  0  0
   25.9450   19.8810   15.8560 C   0  0  0  0  0  0  0  0  0  0  0  0
   26.5880   18.7880   16.6760 C   0  0  0  0  0  0  0  0  0  0  0  0
   27.3460   19.0280   17.6100 O   0  0  0  0  0  0  0  0  0  0  0  0
   26.2670   17.4970   16.3370 N   0  0  0  0  0  0  0  0  0  0  0  0
   25.7660   17.0800   15.1250 C   0  0  0  0  0  0  0  0  0  0  0  0
   25.9270   15.9200   14.7560 O   0  0  0  0  0  0  0  0  0  0  0  0
   23.8300   16.7780   12.6270 C   0  0  0  0  0  0  0  0  0  0  0  0
   22.9710   16.3050   13.3470 O   0  0  0  0  0  0  0  0  0  0  0  0
   25.3700   15.0300    4.4590 C   0  0  0  0  0  0  0  0  0  0  0  0
   24.0420   11.1170    4.0650 C   0  0  0  0  0  0  0  0  0  0  0  0
   24.0720   10.6190    5.2830 N   0  0  0  0  0  0  0  0  0  0  0  0
   24.8497    9.5640    8.8806 H   0  0  0  0  0  0  0  0  0  0  0  0
   23.8507    9.4948    7.3893 H   0  0  0  0  0  0  0  0  0  0  0  0
   25.5127    8.8135    7.3893 H   0  0  0  0  0  0  0  0  0  0  0  0
   24.9926   11.7472    7.9910 H   0  0  0  0  0  0  0  0  0  0  0  0
   26.5192   10.9271    7.4446 H   0  0  0  0  0  0  0  0  0  0  0  0
   26.5140   12.8890    5.3113 H   0  0  0  0  0  0  0  0  0  0  0  0
   27.0971   14.8900    1.4985 H   0  0  0  0  0  0  0  0  0  0  0  0
   28.0610   16.9994    2.4264 H   0  0  0  0  0  0  0  0  0  0  0  0
   27.3009   17.8456    4.6455 H   0  0  0  0  0  0  0  0  0  0  0  0
   25.3742   14.8510    6.9969 H   0  0  0  0  0  0  0  0  0  0  0  0
   23.2333   14.6829    8.4456 H   0  0  0  0  0  0  0  0  0  0  0  0
   22.4689   14.9875   10.8167 H   0  0  0  0  0  0  0  0  0  0  0  0
   26.4738   17.5039    9.0873 H   0  0  0  0  0  0  0  0  0  0  0  0
   26.7327   17.6181   12.1339 H   0  0  0  0  0  0  0  0  0  0  0  0
   25.8413   19.0137   11.5757 H   0  0  0  0  0  0  0  0  0  0  0  0
   24.0283   18.3158   14.7574 H   0  0  0  0  0  0  0  0  0  0  0  0
   26.8061   19.3234   13.9605 H   0  0  0  0  0  0  0  0  0  0  0  0
   25.2733   20.2501   13.8409 H   0  0  0  0  0  0  0  0  0  0  0  0
   26.5671   20.7864   15.9141 H   0  0  0  0  0  0  0  0  0  0  0  0
   24.9403   20.0744   16.2599 H   0  0  0  0  0  0  0  0  0  0  0  0
   26.4147   16.7742   17.0557 H   0  0  0  0  0  0  0  0  0  0  0  0
   24.6145   14.4697    5.0293 H   0  0  0  0  0  0  0  0  0  0  0  0
   23.3268   10.8202    3.2837 H   0  0  0  0  0  0  0  0  0  0  0  0
  1  2  1  0
  2  3  1  0
  3  4  2  0
  4  5  1  0
  5  6  1  0
  6  7  2  0
  6  8  2  0
  6  9  1  0
  9 10  2  0
 10 11  1  0
 11 12  2  0
 12 13  1  0
 13 14  1  0
 14 15  2  0
 14 16  1  0
 16 17  1  0
 17 18  2  0
 18 19  1  0
 19 20  2  0
 20 21  1  0
 21 22  2  0
 21 23  1  0
 23 24  1  0
 24 25  1  0
 25 26  1  0
 26 27  1  0
 27 28  1  0
 28 29  2  0
 28 30  1  0
 30 31  1  0
 31 32  2  0
 24 33  1  0
 33 34  2  0
 13 35  2  0
  5 36  1  0
 36 37  2  0
 37  3  1  0
 35  9  1  0
 22 17  1  0
 31 25  1  0
 33 20  1  0
  1 38  1  0
  1 39  1  0
  1 40  1  0
  2 41  1  0
  2 42  1  0
  4 43  1  0
 10 44  1  0
 11 45  1  0
 12 46  1  0
 16 47  1  0
 18 48  1  0
 19 49  1  0
 22 50  1  0
 23 51  1  0
 23 52  1  0
 25 53  1  1
 26 54  1  0
 26 55  1  0
 27 56  1  0
 27 57  1  0
 30 58  1  0
 35 59  1  0
 36 60  1  0
M  END
>  <meeko>  (938) 
{"is_sidechain": [true], "free_energy": -11.12, "intermolecular_energy": 0.0, "internal_energy": -11.12, "cluster_size": 20, "cluster_id": 1, "rank_in_cluster": 1}

>  <_RMSD_MCS_to_ref>  (938) 
1.7212330367113766

$$$$
ligand
     RDKit          3D

 59 64  0  0  0  0  0  0  0  0999 V2000
   24.8540    9.4020    7.6050 C   0  0  0  0  0  0  0  0  0  0  0  0
   25.5230   10.7550    7.4270 C   0  0  0  0  0  0  0  0  0  0  0  0
   25.2830   11.3260    6.0740 C   0  0  0  0  0  0  0  0  0  0  0  0
   24.5430   12.4370    5.7190 C   0  0  0  0  0  0  0  0  0  0  0  0
   24.6590   12.4990    4.3610 N   0  0  0  0  0  0  0  0  0  0  0  0
   24.2060   13.7950    3.3750 S   0  0  0  0  0  6  0  0  0  0  0  0
   22.9190   14.2210    3.8930 O   0  0  0  0  0  0  0  0  0  0  0  0
   24.3030   13.2460    2.0320 O   0  0  0  0  0  0  0  0  0  0  0  0
   25.3990   15.0310    3.6060 C   0  0  0  0  0  0  0  0  0  0  0  0
   26.1620   15.3930    2.5520 C   0  0  0  0  0  0  0  0  0  0  0  0
   27.1980   16.3970    2.7310 C   0  0  0  0  0  0  0  0  0  0  0  0
   27.4220   16.9620    3.9310 C   0  0  0  0  0  0  0  0  0  0  0  0
   26.6270   16.5860    5.0490 C   0  0  0  0  0  0  0  0  0  0  0  0
   26.6790   16.9840    6.3000 N   0  0  0  0  0  0  0  0  0  0  0  0
   25.6670   16.3180    6.9470 C   0  0  0  0  0  0  0  0  0  0  0  0
   25.3840   16.4920    8.3650 C   0  0  0  0  0  0  0  0  0  0  0  0
   24.2390   15.9240    8.9730 C   0  0  0  0  0  0  0  0  0  0  0  0
   23.9830   16.0950   10.3390 C   0  0  0  0  0  0  0  0  0  0  0  0
   24.8870   16.8420   11.0680 C   0  0  0  0  0  0  0  0  0  0  0  0
   26.0190   17.4140   10.4980 C   0  0  0  0  0  0  0  0  0  0  0  0
   26.2810   17.2480    9.1480 C   0  0  0  0  0  0  0  0  0  0  0  0
   26.8060   18.1390   11.5380 C   0  0  0  0  0  0  0  0  0  0  0  0
   25.9650   18.0050   12.7210 N   0  0  0  0  0  0  0  0  0  0  0  0
   26.4140   18.3370   14.0680 C   0  0  2  0  0  0  0  0  0  0  0  0
   25.9460   17.3220   15.1060 C   0  0  0  0  0  0  0  0  0  0  0  0
   26.5270   17.6840   16.4640 C   0  0  0  0  0  0  0  0  0  0  0  0
   26.1620   19.0970   16.8540 C   0  0  0  0  0  0  0  0  0  0  0  0
   25.9310   19.4200   18.0150 O   0  0  0  0  0  0  0  0  0  0  0  0
   26.1190   20.0220   15.8410 N   0  0  0  0  0  0  0  0  0  0  0  0
   25.9590   19.7410   14.5020 C   0  0  0  0  0  0  0  0  0  0  0  0
   25.4780   20.5820   13.7480 O   0  0  0  0  0  0  0  0  0  0  0  0
   24.8730   17.1790   12.4950 C   0  0  0  0  0  0  0  0  0  0  0  0
   24.0470   16.7900   13.2980 O   0  0  0  0  0  0  0  0  0  0  0  0
   25.0010   15.4930    6.0680 C   0  0  0  0  0  0  0  0  0  0  0  0
   25.6220   15.6370    4.8470 N   0  0  0  0  0  0  0  0  0  0  0  0
   25.4560   11.4850    3.9360 C   0  0  0  0  0  0  0  0  0  0  0  0
   25.8500   10.7500    4.9550 N   0  0  0  0  0  0  0  0  0  0  0  0
   24.7464    9.1845    8.6779 H   0  0  0  0  0  0  0  0  0  0  0  0
   23.8606    9.4192    7.1330 H   0  0  0  0  0  0  0  0  0  0  0  0
   25.4708    8.6230    7.1330 H   0  0  0  0  0  0  0  0  0  0  0  0
   25.1239   11.4496    8.1808 H   0  0  0  0  0  0  0  0  0  0  0  0
   26.6073   10.6145    7.5472 H   0  0  0  0  0  0  0  0  0  0  0  0
   23.9867   13.1171    6.3807 H   0  0  0  0  0  0  0  0  0  0  0  0
   26.0009   14.9320    1.5664 H   0  0  0  0  0  0  0  0  0  0  0  0
   27.8102   16.7004    1.8689 H   0  0  0  0  0  0  0  0  0  0  0  0
   28.2176   17.7126    4.0474 H   0  0  0  0  0  0  0  0  0  0  0  0
   23.5375   15.3376    8.3614 H   0  0  0  0  0  0  0  0  0  0  0  0
   23.0954   15.6511   10.8134 H   0  0  0  0  0  0  0  0  0  0  0  0
   27.1753   17.6991    8.6934 H   0  0  0  0  0  0  0  0  0  0  0  0
   27.7881   17.6684   11.6931 H   0  0  0  0  0  0  0  0  0  0  0  0
   27.0258   19.1836   11.2724 H   0  0  0  0  0  0  0  0  0  0  0  0
   27.5127   18.3134   14.0211 H   0  0  0  0  0  0  0  0  0  0  0  0
   24.8475   17.3340   15.1618 H   0  0  0  0  0  0  0  0  0  0  0  0
   26.2866   16.3169   14.8167 H   0  0  0  0  0  0  0  0  0  0  0  0
   26.1321   16.9895   17.2201 H   0  0  0  0  0  0  0  0  0  0  0  0
   27.6230   17.6104   16.4053 H   0  0  0  0  0  0  0  0  0  0  0  0
   26.2147   21.0130   16.1051 H   0  0  0  0  0  0  0  0  0  0  0  0
   24.1414   14.8458    6.2964 H   0  0  0  0  0  0  0  0  0  0  0  0
   25.7336   11.3031    2.8873 H   0  0  0  0  0  0  0  0  0  0  0  0
  1  2  1  0
  2  3  1  0
  3  4  2  0
  4  5  1  0
  5  6  1  0
  6  7  2  0
  6  8  2  0
  6  9  1  0
  9 10  2  0
 10 11  1  0
 11 12  2  0
 12 13  1  0
 13 14  2  0
 14 15  1  0
 15 16  1  0
 16 17  2  0
 17 18  1  0
 18 19  2  0
 19 20  1  0
 20 21  2  0
 20 22  1  0
 22 23  1  0
 23 24  1  0
 24 25  1  0
 25 26  1  0
 26 27  1  0
 27 28  2  0
 27 29  1  0
 29 30  1  0
 30 31  2  0
 23 32  1  0
 32 33  2  0
 15 34  2  0
 34 35  1  0
  5 36  1  0
 36 37  2  0
 37  3  1  0
 35  9  1  0
 35 13  1  0
 21 16  1  0
 30 24  1  0
 32 19  1  0
  1 38  1  0
  1 39  1  0
  1 40  1  0
  2 41  1  0
  2 42  1  0
  4 43  1  0
 10 44  1  0
 11 45  1  0
 12 46  1  0
 17 47  1  0
 18 48  1  0
 21 49  1  0
 22 50  1  0
 22 51  1  0
 24 52  1  6
 25 53  1  0
 25 54  1  0
 26 55  1  0
 26 56  1  0
 29 57  1  0
 34 58  1  0
 36 59  1  0
M  END
>  <meeko>  (939) 
{"is_sidechain": [true], "free_energy": -11.11, "intermolecular_energy": 0.0, "internal_energy": -11.11, "cluster_size": 2, "cluster_id": 2, "rank_in_cluster": 1}

>  <_RMSD_MCS_to_ref>  (939) 
1.2078447747951713

$$$$
ligand
     RDKit          3D

 57 61  0  0  0  0  0  0  0  0999 V2000
   24.8540    9.4020    7.6050 C   0  0  0  0  0  0  0  0  0  0  0  0
   25.5230   10.7550    7.4270 C   0  0  0  0  0  0  0  0  0  0  0  0
   25.1440   11.4100    6.1440 C   0  0  0  0  0  0  0  0  0  0  0  0
   25.7100   12.5100    5.5310 C   0  0  0  0  0  0  0  0  0  0  0  0
   24.9820   12.6690    4.3890 N   0  0  0  0  0  0  0  0  0  0  0  0
   25.0400   13.9900    3.3580 S   0  0  0  0  0  6  0  0  0  0  0  0
   23.6560   14.3640    3.1250 O   0  0  0  0  0  0  0  0  0  0  0  0
   25.9420   13.6270    2.2810 O   0  0  0  0  0  0  0  0  0  0  0  0
   25.8080   15.3340    4.2540 C   0  0  0  0  0  0  0  0  0  0  0  0
   26.8390   16.1500    3.5290 C   0  0  0  0  0  0  0  0  0  0  0  0
   27.3590   17.1740    4.2190 C   0  0  0  0  0  0  0  0  0  0  0  0
   26.9520   17.4260    5.5240 N   0  0  0  0  0  0  0  0  0  0  0  0
   27.3680   18.4180    6.3370 N   0  0  0  0  0  0  0  0  0  0  0  0
   26.6870   18.2290    7.4660 C   0  0  0  0  0  0  0  0  0  0  0  0
   25.8300   17.1070    7.4200 C   0  0  0  0  0  0  0  0  0  0  0  0
   24.9710   16.6310    8.4930 C   0  0  0  0  0  0  0  0  0  0  0  0
   24.0500   15.8620    8.2460 O   0  0  0  0  0  0  0  0  0  0  0  0
   25.2830   17.1560    9.7330 N   0  0  0  0  0  0  0  0  0  0  0  0
   24.6550   16.8950   10.9670 C   0  0  0  0  0  0  0  0  0  0  0  0
   23.6530   15.9440   11.1460 C   0  0  0  0  0  0  0  0  0  0  0  0
   23.0980   15.7320   12.4100 C   0  0  0  0  0  0  0  0  0  0  0  0
   23.5370   16.4750   13.5060 C   0  0  0  0  0  0  0  0  0  0  0  0
   24.5380   17.4420   13.3520 C   0  0  0  0  0  0  0  0  0  0  0  0
   25.0120   18.2880   14.5230 C   0  0  1  0  0  0  0  0  0  0  0  0
   26.2260   17.6370   15.1940 C   0  0  0  0  0  0  0  0  0  0  0  0
   26.6680   18.4730   16.3840 C   0  0  0  0  0  0  0  0  0  0  0  0
   26.9780   19.8890   15.9650 C   0  0  0  0  0  0  0  0  0  0  0  0
   27.7300   20.6140   16.6080 O   0  0  0  0  0  0  0  0  0  0  0  0
   26.3130   20.3580   14.8600 N   0  0  0  0  0  0  0  0  0  0  0  0
   25.3230   19.7340   14.1370 C   0  0  0  0  0  0  0  0  0  0  0  0
   24.6980   20.3640   13.2870 O   0  0  0  0  0  0  0  0  0  0  0  0
   25.0880   17.6410   12.0730 C   0  0  0  0  0  0  0  0  0  0  0  0
   26.0020   16.6020    6.1430 C   0  0  0  0  0  0  0  0  0  0  0  0
   25.4240   15.5370    5.4910 N   0  0  0  0  0  0  0  0  0  0  0  0
   24.0070   11.7260    4.3460 C   0  0  0  0  0  0  0  0  0  0  0  0
   24.0860   10.9340    5.3940 N   0  0  0  0  0  0  0  0  0  0  0  0
   24.7464    9.1845    8.6779 H   0  0  0  0  0  0  0  0  0  0  0  0
   23.8606    9.4192    7.1330 H   0  0  0  0  0  0  0  0  0  0  0  0
   25.4708    8.6230    7.1330 H   0  0  0  0  0  0  0  0  0  0  0  0
   25.2246   11.4091    8.2595 H   0  0  0  0  0  0  0  0  0  0  0  0
   26.6109   10.5926    7.4128 H   0  0  0  0  0  0  0  0  0  0  0  0
   26.5554   13.1192    5.8834 H   0  0  0  0  0  0  0  0  0  0  0  0
   27.1474   15.9219    2.4981 H   0  0  0  0  0  0  0  0  0  0  0  0
   28.1144   17.8208    3.7488 H   0  0  0  0  0  0  0  0  0  0  0  0
   26.7824   18.8815    8.3464 H   0  0  0  0  0  0  0  0  0  0  0  0
   26.0708   17.8190    9.7580 H   0  0  0  0  0  0  0  0  0  0  0  0
   23.2968   15.3566   10.2869 H   0  0  0  0  0  0  0  0  0  0  0  0
   22.3107   14.9752   12.5420 H   0  0  0  0  0  0  0  0  0  0  0  0
   23.0940   16.3001   14.4976 H   0  0  0  0  0  0  0  0  0  0  0  0
   24.1766   18.3312   15.2373 H   0  0  0  0  0  0  0  0  0  0  0  0
   25.9555   16.6276   15.5374 H   0  0  0  0  0  0  0  0  0  0  0  0
   27.0507   17.5739   14.4688 H   0  0  0  0  0  0  0  0  0  0  0  0
   25.8621   18.4876   17.1325 H   0  0  0  0  0  0  0  0  0  0  0  0
   27.5792   18.0255   16.8075 H   0  0  0  0  0  0  0  0  0  0  0  0
   26.5897   21.2940   14.5310 H   0  0  0  0  0  0  0  0  0  0  0  0
   25.8746   18.3979   11.9371 H   0  0  0  0  0  0  0  0  0  0  0  0
   23.2561   11.6363    3.5472 H   0  0  0  0  0  0  0  0  0  0  0  0
  1  2  1  0
  2  3  1  0
  3  4  2  0
  4  5  1  0
  5  6  1  0
  6  7  2  0
  6  8  2  0
  6  9  1  0
  9 10  1  0
 10 11  2  0
 11 12  1  0
 12 13  1  0
 13 14  2  0
 14 15  1  0
 15 16  1  0
 16 17  2  0
 16 18  1  0
 18 19  1  0
 19 20  2  0
 20 21  1  0
 21 22  2  0
 22 23  1  0
 23 24  1  0
 24 25  1  0
 25 26  1  0
 26 27  1  0
 27 28  2  0
 27 29  1  0
 29 30  1  0
 30 31  2  0
 23 32  2  0
 15 33  2  0
 33 34  1  0
  5 35  1  0
 35 36  2  0
 36  3  1  0
 34  9  2  0
 33 12  1  0
 32 19  1  0
 30 24  1  0
  1 37  1  0
  1 38  1  0
  1 39  1  0
  2 40  1  0
  2 41  1  0
  4 42  1  0
 10 43  1  0
 11 44  1  0
 14 45  1  0
 18 46  1  0
 20 47  1  0
 21 48  1  0
 22 49  1  0
 24 50  1  1
 25 51  1  0
 25 52  1  0
 26 53  1  0
 26 54  1  0
 29 55  1  0
 32 56  1  0
 35 57  1  0
M  END
>  <meeko>  (940) 
{"is_sidechain": [true], "free_energy": -11.1, "intermolecular_energy": 0.0, "internal_energy": -11.1, "cluster_size": 5, "cluster_id": 2, "rank_in_cluster": 1}

>  <_RMSD_MCS_to_ref>  (940) 
0.4969898137789139

$$$$
ligand
     RDKit          3D

 61 66  0  0  0  0  0  0  0  0999 V2000
   24.8540    9.4020    7.6050 C   0  0  0  0  0  0  0  0  0  0  0  0
   25.5230   10.7550    7.4270 C   0  0  0  0  0  0  0  0  0  0  0  0
   25.5620   11.1760    6.0010 C   0  0  0  0  0  0  0  0  0  0  0  0
   26.3340   12.1540    5.4050 C   0  0  0  0  0  0  0  0  0  0  0  0
   25.9780   12.1010    4.0870 N   0  0  0  0  0  0  0  0  0  0  0  0
   26.6440   13.0340    2.8500 S   0  0  0  0  0  6  0  0  0  0  0  0
   28.0080   12.5650    2.6780 O   0  0  0  0  0  0  0  0  0  0  0  0
   25.6820   12.8980    1.7690 O   0  0  0  0  0  0  0  0  0  0  0  0
   26.6570   14.6020    3.2860 O   0  0  0  0  0  0  0  0  0  0  0  0
   26.3890   14.9530    4.5820 C   0  0  0  0  0  0  0  0  0  0  0  0
   27.1530   15.9550    5.1460 C   0  0  0  0  0  0  0  0  0  0  0  0
   26.8480   16.3570    6.4460 C   0  0  0  0  0  0  0  0  0  0  0  0
   25.7990   15.7770    7.1440 C   0  0  0  0  0  0  0  0  0  0  0  0
   25.5170   16.1860    8.3970 N   0  0  0  0  0  0  0  0  0  0  0  0
   24.4860   15.6000    9.0590 C   0  0  0  0  0  0  0  0  0  0  0  0
   24.2430   16.0940   10.4330 C   0  0  0  0  0  0  0  0  0  0  0  0
   23.1600   15.6150   11.2200 C   0  0  0  0  0  0  0  0  0  0  0  0
   22.9260   16.0790   12.5200 C   0  0  0  0  0  0  0  0  0  0  0  0
   23.7910   17.0280   13.0200 C   0  0  0  0  0  0  0  0  0  0  0  0
   24.8700   17.5150   12.2910 C   0  0  0  0  0  0  0  0  0  0  0  0
   25.1070   17.0560   11.0040 C   0  0  0  0  0  0  0  0  0  0  0  0
   25.6370   18.4960   13.1110 C   0  0  0  0  0  0  0  0  0  0  0  0
   24.8280   18.6080   14.3170 N   0  0  0  0  0  0  0  0  0  0  0  0
   25.3180   19.3130   15.4960 C   0  0  1  0  0  0  0  0  0  0  0  0
   26.3330   18.5130   16.3130 C   0  0  0  0  0  0  0  0  0  0  0  0
   26.7290   19.3110   17.5460 C   0  0  0  0  0  0  0  0  0  0  0  0
   27.2770   20.6670   17.1680 C   0  0  0  0  0  0  0  0  0  0  0  0
   28.0200   21.3030   17.9100 O   0  0  0  0  0  0  0  0  0  0  0  0
   26.8360   21.2020   15.9830 N   0  0  0  0  0  0  0  0  0  0  0  0
   25.8910   20.6890   15.1240 C   0  0  0  0  0  0  0  0  0  0  0  0
   25.4750   21.3660   14.1840 O   0  0  0  0  0  0  0  0  0  0  0  0
   23.7950   17.6820   14.3330 C   0  0  0  0  0  0  0  0  0  0  0  0
   23.0270   17.4180   15.2370 O   0  0  0  0  0  0  0  0  0  0  0  0
   23.7160   14.6120    8.4570 C   0  0  0  0  0  0  0  0  0  0  0  0
   24.0230   14.2070    7.1560 C   0  0  0  0  0  0  0  0  0  0  0  0
   25.0780   14.7760    6.4670 C   0  0  0  0  0  0  0  0  0  0  0  0
   25.3580   14.3690    5.2120 N   0  0  0  0  0  0  0  0  0  0  0  0
   25.0280   11.1460    3.9170 C   0  0  0  0  0  0  0  0  0  0  0  0
   24.7540   10.5580    5.0640 N   0  0  0  0  0  0  0  0  0  0  0  0
   24.7464    9.1845    8.6779 H   0  0  0  0  0  0  0  0  0  0  0  0
   23.8606    9.4192    7.1330 H   0  0  0  0  0  0  0  0  0  0  0  0
   25.4708    8.6230    7.1330 H   0  0  0  0  0  0  0  0  0  0  0  0
   24.9632   11.5062    8.0035 H   0  0  0  0  0  0  0  0  0  0  0  0
   26.5600   10.6699    7.7838 H   0  0  0  0  0  0  0  0  0  0  0  0
   27.0667   12.8218    5.8817 H   0  0  0  0  0  0  0  0  0  0  0  0
   27.9772   16.4221    4.5870 H   0  0  0  0  0  0  0  0  0  0  0  0
   27.4477   17.1452    6.9247 H   0  0  0  0  0  0  0  0  0  0  0  0
   22.4857   14.8571   10.7946 H   0  0  0  0  0  0  0  0  0  0  0  0
   22.0844   15.7008   13.1189 H   0  0  0  0  0  0  0  0  0  0  0  0
   25.9637   17.4389   10.4300 H   0  0  0  0  0  0  0  0  0  0  0  0
   26.6438   18.1180   13.3425 H   0  0  0  0  0  0  0  0  0  0  0  0
   25.7979   19.4582   12.6027 H   0  0  0  0  0  0  0  0  0  0  0  0
   24.4394   19.4521   16.1431 H   0  0  0  0  0  0  0  0  0  0  0  0
   25.8840   17.5577   16.6225 H   0  0  0  0  0  0  0  0  0  0  0  0
   27.2250   18.3159   15.7002 H   0  0  0  0  0  0  0  0  0  0  0  0
   25.8437   19.4473   18.1845 H   0  0  0  0  0  0  0  0  0  0  0  0
   27.5130   18.7562   18.0822 H   0  0  0  0  0  0  0  0  0  0  0  0
   27.2644   22.0958   15.7029 H   0  0  0  0  0  0  0  0  0  0  0  0
   22.8749   14.1545    8.9986 H   0  0  0  0  0  0  0  0  0  0  0  0
   23.4177   13.4254    6.6735 H   0  0  0  0  0  0  0  0  0  0  0  0
   24.5534   10.8978    2.9562 H   0  0  0  0  0  0  0  0  0  0  0  0
  1  2  1  0
  2  3  1  0
  3  4  2  0
  4  5  1  0
  5  6  1  0
  6  7  2  0
  6  8  2  0
  6  9  1  0
  9 10  1  0
 10 11  2  0
 11 12  1  0
 12 13  2  0
 13 14  1  0
 14 15  2  0
 15 16  1  0
 16 17  2  0
 17 18  1  0
 18 19  2  0
 19 20  1  0
 20 21  2  0
 20 22  1  0
 22 23  1  0
 23 24  1  0
 24 25  1  0
 25 26  1  0
 26 27  1  0
 27 28  2  0
 27 29  1  0
 29 30  1  0
 30 31  2  0
 23 32  1  0
 32 33  2  0
 15 34  1  0
 34 35  2  0
 35 36  1  0
 36 37  2  0
  5 38  1  0
 38 39  2  0
 39  3  1  0
 37 10  1  0
 36 13  1  0
 21 16  1  0
 30 24  1  0
 32 19  1  0
  1 40  1  0
  1 41  1  0
  1 42  1  0
  2 43  1  0
  2 44  1  0
  4 45  1  0
 11 46  1  0
 12 47  1  0
 17 48  1  0
 18 49  1  0
 21 50  1  0
 22 51  1  0
 22 52  1  0
 24 53  1  1
 25 54  1  0
 25 55  1  0
 26 56  1  0
 26 57  1  0
 29 58  1  0
 34 59  1  0
 35 60  1  0
 38 61  1  0
M  END
>  <meeko>  (941) 
{"is_sidechain": [true], "free_energy": -11.1, "intermolecular_energy": 0.0, "internal_energy": -11.1, "cluster_size": 7, "cluster_id": 1, "rank_in_cluster": 1}

>  <_RMSD_MCS_to_ref>  (941) 
1.2299314795729246

$$$$
ligand
     RDKit          3D

 54 58  0  0  0  0  0  0  0  0999 V2000
   24.8540    9.4020    7.6050 C   0  0  0  0  0  0  0  0  0  0  0  0
   25.5230   10.7550    7.4270 C   0  0  0  0  0  0  0  0  0  0  0  0
   27.0080   10.6510    7.4120 C   0  0  0  0  0  0  0  0  0  0  0  0
   27.9380   11.5630    6.9550 C   0  0  0  0  0  0  0  0  0  0  0  0
   29.1390   10.9470    7.1590 N   0  0  0  0  0  0  0  0  0  0  0  0
   30.6520   11.6580    6.9880 S   0  0  0  0  0  6  0  0  0  0  0  0
   30.7500   12.0540    5.5970 O   0  0  0  0  0  0  0  0  0  0  0  0
   31.5920   10.7400    7.6010 O   0  0  0  0  0  0  0  0  0  0  0  0
   30.5400   13.1160    7.9850 C   0  0  0  0  0  0  0  0  0  0  0  0
   31.6950   13.8400    8.2870 C   0  0  0  0  0  0  0  0  0  0  0  0
   31.5960   14.9850    9.0710 C   0  0  0  0  0  0  0  0  0  0  0  0
   30.3480   15.4070    9.5440 C   0  0  0  0  0  0  0  0  0  0  0  0
   29.1800   14.6920    9.2360 C   0  0  0  0  0  0  0  0  0  0  0  0
   27.8620   15.1340    9.7080 C   0  0  0  0  0  0  0  0  0  0  0  0
   27.5340   16.2900   10.3940 C   0  0  0  0  0  0  0  0  0  0  0  0
   26.1290   16.4030   10.6750 C   0  0  0  0  0  0  0  0  0  0  0  0
   25.3540   17.3770   11.3390 C   0  0  0  0  0  0  0  0  0  0  0  0
   25.9280   18.5230   11.8900 N   0  0  0  0  0  0  0  0  0  0  0  0
   26.3340   18.4410   13.2980 C   0  0  2  0  0  0  0  0  0  0  0  0
   25.7710   17.1710   13.9320 C   0  0  0  0  0  0  0  0  0  0  0  0
   26.1320   17.1340   15.4090 C   0  0  0  0  0  0  0  0  0  0  0  0
   25.6260   18.3620   16.1260 C   0  0  0  0  0  0  0  0  0  0  0  0
   25.3040   18.3480   17.3100 O   0  0  0  0  0  0  0  0  0  0  0  0
   25.5850   19.5240   15.3970 N   0  0  0  0  0  0  0  0  0  0  0  0
   25.7700   19.6620   14.0440 C   0  0  0  0  0  0  0  0  0  0  0  0
   25.5110   20.7230   13.4740 O   0  0  0  0  0  0  0  0  0  0  0  0
   24.0170   17.1880   11.4170 N   0  0  0  0  0  0  0  0  0  0  0  0
   23.4830   16.0830   10.8700 C   0  0  0  0  0  0  0  0  0  0  0  0
   24.1210   15.0980   10.2350 N   0  0  0  0  0  0  0  0  0  0  0  0
   25.4440   15.3150   10.1660 C   0  0  0  0  0  0  0  0  0  0  0  0
   26.4630   14.1950    9.3890 S   0  0  0  0  0  0  0  0  0  0  0  0
   29.2870   13.5410    8.4410 C   0  0  0  0  0  0  0  0  0  0  0  0
   28.9280    9.7470    7.7570 C   0  0  0  0  0  0  0  0  0  0  0  0
   27.6390    9.5300    7.9150 N   0  0  0  0  0  0  0  0  0  0  0  0
   24.7464    9.1845    8.6779 H   0  0  0  0  0  0  0  0  0  0  0  0
   23.8606    9.4192    7.1330 H   0  0  0  0  0  0  0  0  0  0  0  0
   25.4708    8.6230    7.1330 H   0  0  0  0  0  0  0  0  0  0  0  0
   25.1890   11.1927    6.4747 H   0  0  0  0  0  0  0  0  0  0  0  0
   25.2376   11.3875    8.2805 H   0  0  0  0  0  0  0  0  0  0  0  0
   27.7535   12.5584    6.5248 H   0  0  0  0  0  0  0  0  0  0  0  0
   32.6733   13.5084    7.9089 H   0  0  0  0  0  0  0  0  0  0  0  0
   32.5003   15.5598    9.3197 H   0  0  0  0  0  0  0  0  0  0  0  0
   30.2816   16.3119   10.1660 H   0  0  0  0  0  0  0  0  0  0  0  0
   28.2741   17.0464   10.6941 H   0  0  0  0  0  0  0  0  0  0  0  0
   26.0600   19.3821   11.3373 H   0  0  0  0  0  0  0  0  0  0  0  0
   27.4320   18.4214   13.3621 H   0  0  0  0  0  0  0  0  0  0  0  0
   24.6765   17.1615   13.8224 H   0  0  0  0  0  0  0  0  0  0  0  0
   26.1994   16.2913   13.4294 H   0  0  0  0  0  0  0  0  0  0  0  0
   25.6815   16.2406   15.8661 H   0  0  0  0  0  0  0  0  0  0  0  0
   27.2279   17.1053   15.4989 H   0  0  0  0  0  0  0  0  0  0  0  0
   25.3942   20.3884   15.9236 H   0  0  0  0  0  0  0  0  0  0  0  0
   22.3914   15.9780   10.9558 H   0  0  0  0  0  0  0  0  0  0  0  0
   28.3842   12.9714    8.1755 H   0  0  0  0  0  0  0  0  0  0  0  0
   29.7230    9.0526    8.0665 H   0  0  0  0  0  0  0  0  0  0  0  0
  1  2  1  0
  2  3  1  0
  3  4  2  0
  4  5  1  0
  5  6  1  0
  6  7  2  0
  6  8  2  0
  6  9  1  0
  9 10  2  0
 10 11  1  0
 11 12  2  0
 12 13  1  0
 13 14  1  0
 14 15  2  0
 15 16  1  0
 16 17  2  0
 17 18  1  0
 18 19  1  0
 19 20  1  0
 20 21  1  0
 21 22  1  0
 22 23  2  0
 22 24  1  0
 24 25  1  0
 25 26  2  0
 17 27  1  0
 27 28  2  0
 28 29  1  0
 29 30  2  0
 30 31  1  0
 13 32  2  0
  5 33  1  0
 33 34  2  0
 34  3  1  0
 32  9  1  0
 31 14  1  0
 30 16  1  0
 25 19  1  0
  1 35  1  0
  1 36  1  0
  1 37  1  0
  2 38  1  0
  2 39  1  0
  4 40  1  0
 10 41  1  0
 11 42  1  0
 12 43  1  0
 15 44  1  0
 18 45  1  0
 19 46  1  6
 20 47  1  0
 20 48  1  0
 21 49  1  0
 21 50  1  0
 24 51  1  0
 28 52  1  0
 32 53  1  0
 33 54  1  0
M  END
>  <meeko>  (942) 
{"is_sidechain": [true], "free_energy": -11.09, "intermolecular_energy": 0.0, "internal_energy": -11.09, "cluster_size": 15, "cluster_id": 1, "rank_in_cluster": 1}

>  <_RMSD_MCS_to_ref>  (942) 
1.8598321310149346

$$$$
ligand
     RDKit          3D

 58 62  0  0  0  0  0  0  0  0999 V2000
   24.8540    9.4020    7.6050 C   0  0  0  0  0  0  0  0  0  0  0  0
   25.5230   10.7550    7.4270 C   0  0  0  0  0  0  0  0  0  0  0  0
   27.0060   10.6470    7.3800 C   0  0  0  0  0  0  0  0  0  0  0  0
   27.9320   11.5810    6.9600 C   0  0  0  0  0  0  0  0  0  0  0  0
   29.1370   10.9640    7.1420 N   0  0  0  0  0  0  0  0  0  0  0  0
   30.6410   11.5750    6.7080 S   0  0  0  0  0  6  0  0  0  0  0  0
   31.1600   10.6620    5.7060 O   0  0  0  0  0  0  0  0  0  0  0  0
   31.3280   11.8190    7.9640 O   0  0  0  0  0  0  0  0  0  0  0  0
   30.3100   13.1350    5.9340 C   0  0  0  0  0  0  0  0  0  0  0  0
   29.3890   13.9930    6.5150 C   0  0  0  0  0  0  0  0  0  0  0  0
   29.1820   15.2130    5.8490 C   0  0  0  0  0  0  0  0  0  0  0  0
   28.3490   16.3620    6.0960 C   0  0  0  0  0  0  0  0  0  0  0  0
   27.4130   16.5310    7.2220 C   0  0  0  0  0  0  0  0  0  0  0  0
   26.2090   16.3760    7.0530 O   0  0  0  0  0  0  0  0  0  0  0  0
   28.0210   16.8400    8.4240 N   0  0  0  0  0  0  0  0  0  0  0  0
   27.4010   17.1010    9.6650 C   0  0  0  0  0  0  0  0  0  0  0  0
   26.4810   16.2500   10.2760 C   0  0  0  0  0  0  0  0  0  0  0  0
   25.9050   16.5900   11.5050 C   0  0  0  0  0  0  0  0  0  0  0  0
   26.2310   17.7920   12.1490 C   0  0  0  0  0  0  0  0  0  0  0  0
   25.6120   18.1180   13.4970 C   0  0  1  0  0  0  0  0  0  0  0  0
   26.2970   17.3010   14.5990 C   0  0  0  0  0  0  0  0  0  0  0  0
   25.6290   17.5750   15.9360 C   0  0  0  0  0  0  0  0  0  0  0  0
   25.6510   19.0480   16.2620 C   0  0  0  0  0  0  0  0  0  0  0  0
   25.6270   19.4670   17.4150 O   0  0  0  0  0  0  0  0  0  0  0  0
   25.6400   19.9090   15.1930 N   0  0  0  0  0  0  0  0  0  0  0  0
   25.6350   19.6040   13.8510 C   0  0  0  0  0  0  0  0  0  0  0  0
   25.5980   20.5130   13.0240 O   0  0  0  0  0  0  0  0  0  0  0  0
   27.1610   18.6410   11.5350 C   0  0  0  0  0  0  0  0  0  0  0  0
   27.7340   18.3000   10.3040 C   0  0  0  0  0  0  0  0  0  0  0  0
   28.5950   17.2460    5.0550 C   0  0  0  0  0  0  0  0  0  0  0  0
   29.5290   16.6920    4.2180 N   0  0  0  0  0  0  0  0  0  0  0  0
   29.9040   15.4530    4.6780 C   0  0  0  0  0  0  0  0  0  0  0  0
   30.8120   14.5400    4.1540 C   0  0  0  0  0  0  0  0  0  0  0  0
   31.0110   13.3700    4.7960 N   0  0  0  0  0  0  0  0  0  0  0  0
   28.9260    9.7060    7.6090 C   0  0  0  0  0  0  0  0  0  0  0  0
   27.6380    9.4860    7.7830 N   0  0  0  0  0  0  0  0  0  0  0  0
   24.7464    9.1845    8.6779 H   0  0  0  0  0  0  0  0  0  0  0  0
   23.8606    9.4192    7.1330 H   0  0  0  0  0  0  0  0  0  0  0  0
   25.4708    8.6230    7.1330 H   0  0  0  0  0  0  0  0  0  0  0  0
   25.1705   11.2034    6.4864 H   0  0  0  0  0  0  0  0  0  0  0  0
   25.2572   11.3795    8.2927 H   0  0  0  0  0  0  0  0  0  0  0  0
   27.7426   12.5913    6.5683 H   0  0  0  0  0  0  0  0  0  0  0  0
   28.8532   13.7347    7.4403 H   0  0  0  0  0  0  0  0  0  0  0  0
   29.0499   16.8853    8.4130 H   0  0  0  0  0  0  0  0  0  0  0  0
   26.2057   15.3035    9.7878 H   0  0  0  0  0  0  0  0  0  0  0  0
   25.1848   15.9032   11.9735 H   0  0  0  0  0  0  0  0  0  0  0  0
   24.5497   17.8428   13.4202 H   0  0  0  0  0  0  0  0  0  0  0  0
   26.2154   16.2297   14.3631 H   0  0  0  0  0  0  0  0  0  0  0  0
   27.3571   17.5888   14.6577 H   0  0  0  0  0  0  0  0  0  0  0  0
   24.5847   17.2321   15.8929 H   0  0  0  0  0  0  0  0  0  0  0  0
   26.1809   17.0353   16.7196 H   0  0  0  0  0  0  0  0  0  0  0  0
   25.6348   20.9125   15.4251 H   0  0  0  0  0  0  0  0  0  0  0  0
   27.4437   19.5845   12.0248 H   0  0  0  0  0  0  0  0  0  0  0  0
   28.4555   18.9839    9.8331 H   0  0  0  0  0  0  0  0  0  0  0  0
   28.1192   18.2290    4.9231 H   0  0  0  0  0  0  0  0  0  0  0  0
   29.8967   17.1403    3.3667 H   0  0  0  0  0  0  0  0  0  0  0  0
   31.3609   14.7683    3.2285 H   0  0  0  0  0  0  0  0  0  0  0  0
   29.7199    8.9726    7.8136 H   0  0  0  0  0  0  0  0  0  0  0  0
  1  2  1  0
  2  3  1  0
  3  4  2  0
  4  5  1  0
  5  6  1  0
  6  7  2  0
  6  8  2  0
  6  9  1  0
  9 10  2  0
 10 11  1  0
 11 12  1  0
 12 13  1  0
 13 14  2  0
 13 15  1  0
 15 16  1  0
 16 17  2  0
 17 18  1  0
 18 19  2  0
 19 20  1  0
 20 21  1  0
 21 22  1  0
 22 23  1  0
 23 24  2  0
 23 25  1  0
 25 26  1  0
 26 27  2  0
 19 28  1  0
 28 29  2  0
 12 30  2  0
 30 31  1  0
 31 32  1  0
 32 33  1  0
 33 34  2  0
  5 35  1  0
 35 36  2  0
 36  3  1  0
 34  9  1  0
 32 11  2  0
 29 16  1  0
 26 20  1  0
  1 37  1  0
  1 38  1  0
  1 39  1  0
  2 40  1  0
  2 41  1  0
  4 42  1  0
 10 43  1  0
 15 44  1  0
 17 45  1  0
 18 46  1  0
 20 47  1  6
 21 48  1  0
 21 49  1  0
 22 50  1  0
 22 51  1  0
 25 52  1  0
 28 53  1  0
 29 54  1  0
 30 55  1  0
 31 56  1  0
 33 57  1  0
 35 58  1  0
M  END
>  <meeko>  (943) 
{"is_sidechain": [true], "free_energy": -11.09, "intermolecular_energy": 0.0, "internal_energy": -11.09, "cluster_size": 19, "cluster_id": 1, "rank_in_cluster": 1}

>  <_RMSD_MCS_to_ref>  (943) 
1.4018077168427914

$$$$
ligand
     RDKit          3D

 61 65  0  0  0  0  0  0  0  0999 V2000
   24.8540    9.4020    7.6050 C   0  0  0  0  0  0  0  0  0  0  0  0
   25.5230   10.7550    7.4270 C   0  0  0  0  0  0  0  0  0  0  0  0
   24.7520   11.6490    6.5210 C   0  0  0  0  0  0  0  0  0  0  0  0
   24.9340   11.8860    5.1730 C   0  0  0  0  0  0  0  0  0  0  0  0
   23.9580   12.7890    4.8570 N   0  0  0  0  0  0  0  0  0  0  0  0
   23.8590   13.6540    3.4220 S   0  0  0  0  0  6  0  0  0  0  0  0
   23.6140   12.6350    2.4170 O   0  0  0  0  0  0  0  0  0  0  0  0
   22.9390   14.7480    3.6520 O   0  0  0  0  0  0  0  0  0  0  0  0
   25.4810   14.3130    3.1600 C   0  0  0  0  0  0  0  0  0  0  0  0
   26.0120   14.2260    1.8620 C   0  0  0  0  0  0  0  0  0  0  0  0
   27.3090   14.6680    1.6070 C   0  0  0  0  0  0  0  0  0  0  0  0
   28.0700   15.2040    2.6410 C   0  0  0  0  0  0  0  0  0  0  0  0
   27.5310   15.3150    3.9240 C   0  0  0  0  0  0  0  0  0  0  0  0
   26.2350   14.8590    4.2050 C   0  0  0  0  0  0  0  0  0  0  0  0
   25.6900   14.9490    5.4620 O   0  0  0  0  0  0  0  0  0  0  0  0
   26.6550   15.2600    6.4780 C   0  0  2  0  0  0  0  0  0  0  0  0
   25.9630   15.7320    7.7690 C   0  0  0  0  0  0  0  0  0  0  0  0
   24.7370   15.8160    7.8340 O   0  0  0  0  0  0  0  0  0  0  0  0
   26.8470   16.0850    8.7770 N   0  0  0  0  0  0  0  0  0  0  0  0
   26.5270   16.5920   10.0580 C   0  0  0  0  0  0  0  0  0  0  0  0
   25.5530   16.0510   10.8960 C   0  0  0  0  0  0  0  0  0  0  0  0
   25.2970   16.6150   12.1530 C   0  0  0  0  0  0  0  0  0  0  0  0
   26.0110   17.7340   12.6010 C   0  0  0  0  0  0  0  0  0  0  0  0
   25.7300   18.3730   13.9500 C   0  0  1  0  0  0  0  0  0  0  0  0
   26.6710   17.7990   15.0160 C   0  0  0  0  0  0  0  0  0  0  0  0
   26.3510   18.4130   16.3690 C   0  0  0  0  0  0  0  0  0  0  0  0
   26.4490   19.9170   16.3170 C   0  0  0  0  0  0  0  0  0  0  0  0
   26.6610   20.5950   17.3180 O   0  0  0  0  0  0  0  0  0  0  0  0
   26.2150   20.5030   15.1000 N   0  0  0  0  0  0  0  0  0  0  0  0
   25.8140   19.9000   13.9290 C   0  0  0  0  0  0  0  0  0  0  0  0
   25.4860   20.5940   12.9700 O   0  0  0  0  0  0  0  0  0  0  0  0
   26.9880   18.2770   11.7570 C   0  0  0  0  0  0  0  0  0  0  0  0
   27.2410   17.7100   10.5020 C   0  0  0  0  0  0  0  0  0  0  0  0
   27.6050   16.3470    5.9900 C   0  0  0  0  0  0  0  0  0  0  0  0
   28.3530   15.8790    4.8630 O   0  0  0  0  0  0  0  0  0  0  0  0
   23.2040   13.0350    5.9560 C   0  0  0  0  0  0  0  0  0  0  0  0
   23.6970   12.4010    7.0030 N   0  0  0  0  0  0  0  0  0  0  0  0
   24.7464    9.1845    8.6779 H   0  0  0  0  0  0  0  0  0  0  0  0
   23.8606    9.4192    7.1330 H   0  0  0  0  0  0  0  0  0  0  0  0
   25.4708    8.6230    7.1330 H   0  0  0  0  0  0  0  0  0  0  0  0
   25.6111   11.2387    8.4110 H   0  0  0  0  0  0  0  0  0  0  0  0
   26.5109   10.5860    6.9738 H   0  0  0  0  0  0  0  0  0  0  0  0
   25.6913   11.4482    4.5060 H   0  0  0  0  0  0  0  0  0  0  0  0
   25.4034   13.8086    1.0463 H   0  0  0  0  0  0  0  0  0  0  0  0
   27.7289   14.5934    0.5931 H   0  0  0  0  0  0  0  0  0  0  0  0
   29.0989   15.5412    2.4471 H   0  0  0  0  0  0  0  0  0  0  0  0
   27.2238   14.3435    6.6938 H   0  0  0  0  0  0  0  0  0  0  0  0
   27.8487   15.9646    8.5698 H   0  0  0  0  0  0  0  0  0  0  0  0
   24.9793   15.1720   10.5670 H   0  0  0  0  0  0  0  0  0  0  0  0
   24.5236   16.1723   12.7978 H   0  0  0  0  0  0  0  0  0  0  0  0
   24.6885   18.1249   14.2022 H   0  0  0  0  0  0  0  0  0  0  0  0
   26.5399   16.7082   15.0697 H   0  0  0  0  0  0  0  0  0  0  0  0
   27.7113   18.0343   14.7471 H   0  0  0  0  0  0  0  0  0  0  0  0
   25.3290   18.1290   16.6602 H   0  0  0  0  0  0  0  0  0  0  0  0
   27.0791   18.0397   17.1042 H   0  0  0  0  0  0  0  0  0  0  0  0
   26.3570   21.5222   15.0561 H   0  0  0  0  0  0  0  0  0  0  0  0
   27.5618   19.1570   12.0831 H   0  0  0  0  0  0  0  0  0  0  0  0
   28.0136   18.1508    9.8548 H   0  0  0  0  0  0  0  0  0  0  0  0
   27.0234   17.2336    5.6975 H   0  0  0  0  0  0  0  0  0  0  0  0
   28.3015   16.6062    6.8010 H   0  0  0  0  0  0  0  0  0  0  0  0
   22.3080   13.6728    5.9728 H   0  0  0  0  0  0  0  0  0  0  0  0
  1  2  1  0
  2  3  1  0
  3  4  2  0
  4  5  1  0
  5  6  1  0
  6  7  2  0
  6  8  2  0
  6  9  1  0
  9 10  2  0
 10 11  1  0
 11 12  2  0
 12 13  1  0
 13 14  2  0
 14 15  1  0
 15 16  1  0
 16 17  1  0
 17 18  2  0
 17 19  1  0
 19 20  1  0
 20 21  2  0
 21 22  1  0
 22 23  2  0
 23 24  1  0
 24 25  1  0
 25 26  1  0
 26 27  1  0
 27 28  2  0
 27 29  1  0
 29 30  1  0
 30 31  2  0
 23 32  1  0
 32 33  2  0
 16 34  1  0
 34 35  1  0
  5 36  1  0
 36 37  2  0
 37  3  1  0
 14  9  1  0
 33 20  1  0
 35 13  1  0
 30 24  1  0
  1 38  1  0
  1 39  1  0
  1 40  1  0
  2 41  1  0
  2 42  1  0
  4 43  1  0
 10 44  1  0
 11 45  1  0
 12 46  1  0
 16 47  1  1
 19 48  1  0
 21 49  1  0
 22 50  1  0
 24 51  1  1
 25 52  1  0
 25 53  1  0
 26 54  1  0
 26 55  1  0
 29 56  1  0
 32 57  1  0
 33 58  1  0
 34 59  1  0
 34 60  1  0
 36 61  1  0
M  END
>  <meeko>  (944) 
{"is_sidechain": [true], "free_energy": -11.09, "intermolecular_energy": 0.0, "internal_energy": -11.09, "cluster_size": 10, "cluster_id": 1, "rank_in_cluster": 1}

>  <_RMSD_MCS_to_ref>  (944) 
0.865663329476303

$$$$
ligand
     RDKit          3D

 54 57  0  0  0  0  0  0  0  0999 V2000
   24.8540    9.4020    7.6050 C   0  0  0  0  0  0  0  0  0  0  0  0
   25.5230   10.7550    7.4270 C   0  0  0  0  0  0  0  0  0  0  0  0
   24.9730   11.5060    6.2660 C   0  0  0  0  0  0  0  0  0  0  0  0
   25.2400   12.7990    5.8610 C   0  0  0  0  0  0  0  0  0  0  0  0
   24.4910   12.9590    4.7320 N   0  0  0  0  0  0  0  0  0  0  0  0
   24.2520   14.4020    3.9040 S   0  0  0  0  0  6  0  0  0  0  0  0
   25.1640   14.3640    2.7770 O   0  0  0  0  0  0  0  0  0  0  0  0
   22.8180   14.5320    3.7370 O   0  0  0  0  0  0  0  0  0  0  0  0
   24.8110   15.6310    5.0490 C   0  0  0  0  0  0  0  0  0  0  0  0
   25.5790   16.7020    4.5950 C   0  0  0  0  0  0  0  0  0  0  0  0
   26.0020   17.6630    5.5070 C   0  0  0  0  0  0  0  0  0  0  0  0
   25.6570   17.5530    6.8610 C   0  0  0  0  0  0  0  0  0  0  0  0
   24.8780   16.4820    7.3420 C   0  0  0  0  0  0  0  0  0  0  0  0
   24.5000   16.3570    8.7210 N   0  0  0  0  0  0  0  0  0  0  0  0
   23.3550   15.7110    9.1530 C   0  0  0  0  0  0  0  0  0  0  0  0
   23.0230   15.5090   10.4290 C   0  0  0  0  0  0  0  0  0  0  0  0
   23.9870   16.0090   11.4140 C   0  0  0  0  0  0  0  0  0  0  0  0
   23.8960   15.7350   12.6000 O   0  0  0  0  0  0  0  0  0  0  0  0
   25.1250   16.8460   10.8840 C   0  0  0  0  0  0  0  0  0  0  0  0
   26.0760   17.5710   11.8110 C   0  0  0  0  0  0  0  0  0  0  0  0
   27.1310   18.0160   11.3880 O   0  0  0  0  0  0  0  0  0  0  0  0
   25.6580   17.6310   13.1200 N   0  0  0  0  0  0  0  0  0  0  0  0
   26.4140   18.3310   14.1430 C   0  0  2  0  0  0  0  0  0  0  0  0
   26.0390   17.8720   15.5480 C   0  0  0  0  0  0  0  0  0  0  0  0
   26.8480   18.6560   16.5700 C   0  0  0  0  0  0  0  0  0  0  0  0
   26.6650   20.1450   16.3920 C   0  0  0  0  0  0  0  0  0  0  0  0
   26.6870   20.9290   17.3370 O   0  0  0  0  0  0  0  0  0  0  0  0
   26.5030   20.5960   15.1070 N   0  0  0  0  0  0  0  0  0  0  0  0
   26.1440   19.8340   14.0220 C   0  0  0  0  0  0  0  0  0  0  0  0
   25.6450   20.3470   13.0210 O   0  0  0  0  0  0  0  0  0  0  0  0
   25.3520   16.9770    9.6060 N   0  0  0  0  0  0  0  0  0  0  0  0
   24.4520   15.5260    6.3980 C   0  0  0  0  0  0  0  0  0  0  0  0
   23.7700   11.8280    4.5120 C   0  0  0  0  0  0  0  0  0  0  0  0
   24.0500   10.9190    5.4230 N   0  0  0  0  0  0  0  0  0  0  0  0
   24.7464    9.1845    8.6779 H   0  0  0  0  0  0  0  0  0  0  0  0
   23.8606    9.4192    7.1330 H   0  0  0  0  0  0  0  0  0  0  0  0
   25.4708    8.6230    7.1330 H   0  0  0  0  0  0  0  0  0  0  0  0
   25.3676   11.3497    8.3393 H   0  0  0  0  0  0  0  0  0  0  0  0
   26.5929   10.5806    7.2400 H   0  0  0  0  0  0  0  0  0  0  0  0
   25.9051   13.5328    6.3397 H   0  0  0  0  0  0  0  0  0  0  0  0
   25.8465   16.7858    3.5313 H   0  0  0  0  0  0  0  0  0  0  0  0
   26.6100   18.5132    5.1642 H   0  0  0  0  0  0  0  0  0  0  0  0
   26.0034   18.3227    7.5664 H   0  0  0  0  0  0  0  0  0  0  0  0
   22.6645   15.3346    8.3839 H   0  0  0  0  0  0  0  0  0  0  0  0
   22.0913   15.0028   10.7217 H   0  0  0  0  0  0  0  0  0  0  0  0
   24.7788   17.1635   13.3835 H   0  0  0  0  0  0  0  0  0  0  0  0
   27.4797   18.1072   13.9873 H   0  0  0  0  0  0  0  0  0  0  0  0
   24.9663   18.0472   15.7169 H   0  0  0  0  0  0  0  0  0  0  0  0
   26.2561   16.7988   15.6535 H   0  0  0  0  0  0  0  0  0  0  0  0
   26.5186   18.3731   17.5807 H   0  0  0  0  0  0  0  0  0  0  0  0
   27.9122   18.4180   16.4258 H   0  0  0  0  0  0  0  0  0  0  0  0
   26.6656   21.5993   14.9400 H   0  0  0  0  0  0  0  0  0  0  0  0
   23.8267   14.6829    6.7269 H   0  0  0  0  0  0  0  0  0  0  0  0
   23.0534   11.6911    3.6888 H   0  0  0  0  0  0  0  0  0  0  0  0
  1  2  1  0
  2  3  1  0
  3  4  2  0
  4  5  1  0
  5  6  1  0
  6  7  2  0
  6  8  2  0
  6  9  1  0
  9 10  2  0
 10 11  1  0
 11 12  2  0
 12 13  1  0
 13 14  1  0
 14 15  1  0
 15 16  2  0
 16 17  1  0
 17 18  2  0
 17 19  1  0
 19 20  1  0
 20 21  2  0
 20 22  1  0
 22 23  1  0
 23 24  1  0
 24 25  1  0
 25 26  1  0
 26 27  2  0
 26 28  1  0
 28 29  1  0
 29 30  2  0
 19 31  2  0
 13 32  2  0
  5 33  1  0
 33 34  2  0
 34  3  1  0
 32  9  1  0
 31 14  1  0
 29 23  1  0
  1 35  1  0
  1 36  1  0
  1 37  1  0
  2 38  1  0
  2 39  1  0
  4 40  1  0
 10 41  1  0
 11 42  1  0
 12 43  1  0
 15 44  1  0
 16 45  1  0
 22 46  1  0
 23 47  1  6
 24 48  1  0
 24 49  1  0
 25 50  1  0
 25 51  1  0
 28 52  1  0
 32 53  1  0
 33 54  1  0
M  END
>  <meeko>  (945) 
{"is_sidechain": [true], "free_energy": -11.09, "intermolecular_energy": 0.0, "internal_energy": -11.09, "cluster_size": 4, "cluster_id": 1, "rank_in_cluster": 1}

>  <_RMSD_MCS_to_ref>  (945) 
0.9344962398117073

$$$$
ligand
     RDKit          3D

 58 62  0  0  0  0  0  0  0  0999 V2000
   24.8710    9.6160    7.7820 C   0  0  0  0  0  0  0  0  0  0  0  0
   25.4240   10.9650    7.3490 C   0  0  0  0  0  0  0  0  0  0  0  0
   26.8720   10.8960    7.0110 C   0  0  0  0  0  0  0  0  0  0  0  0
   27.9660   11.1010    7.8270 C   0  0  0  0  0  0  0  0  0  0  0  0
   29.0390   10.8870    7.0090 N   0  0  0  0  0  0  0  0  0  0  0  0
   30.6520   11.1200    7.4120 S   0  0  0  0  0  6  0  0  0  0  0  0
   31.0160    9.9800    8.2320 O   0  0  0  0  0  0  0  0  0  0  0  0
   31.3340   11.4370    6.1710 O   0  0  0  0  0  0  0  0  0  0  0  0
   30.6850   12.5620    8.4400 C   0  0  0  0  0  0  0  0  0  0  0  0
   29.5220   13.2490    8.6700 C   0  0  0  0  0  0  0  0  0  0  0  0
   29.6750   14.3450    9.4840 C   0  0  0  0  0  0  0  0  0  0  0  0
   28.4870   15.1970    9.8240 C   0  0  0  0  0  0  0  0  0  0  0  0
   28.6640   16.3690   10.1230 O   0  0  0  0  0  0  0  0  0  0  0  0
   27.2950   14.5110    9.7470 N   0  0  0  0  0  0  0  0  0  0  0  0
   25.9740   14.9280   10.0000 C   0  0  0  0  0  0  0  0  0  0  0  0
   24.9930   14.3680    9.1520 C   0  0  0  0  0  0  0  0  0  0  0  0
   23.6250   14.6700    9.2820 C   0  0  0  0  0  0  0  0  0  0  0  0
   23.1970   15.5440   10.2710 C   0  0  0  0  0  0  0  0  0  0  0  0
   24.1670   16.0890   11.0930 C   0  0  0  0  0  0  0  0  0  0  0  0
   25.5380   15.8070   10.9820 C   0  0  0  0  0  0  0  0  0  0  0  0
   26.2590   16.5670   12.0480 C   0  0  0  0  0  0  0  0  0  0  0  0
   25.2040   17.3370   12.6990 N   0  0  0  0  0  0  0  0  0  0  0  0
   25.3870   18.0250   13.9690 C   0  0  2  0  0  0  0  0  0  0  0  0
   26.3070   19.2370   13.8500 C   0  0  0  0  0  0  0  0  0  0  0  0
   26.3800   19.9510   15.1900 C   0  0  0  0  0  0  0  0  0  0  0  0
   26.8310   19.0140   16.2850 C   0  0  0  0  0  0  0  0  0  0  0  0
   27.5120   19.3920   17.2340 O   0  0  0  0  0  0  0  0  0  0  0  0
   26.4150   17.7100   16.1870 N   0  0  0  0  0  0  0  0  0  0  0  0
   25.9310   17.0850   15.0600 C   0  0  0  0  0  0  0  0  0  0  0  0
   25.9430   15.8580   14.9820 O   0  0  0  0  0  0  0  0  0  0  0  0
   23.9550   17.0200   12.2050 C   0  0  0  0  0  0  0  0  0  0  0  0
   22.8720   17.4140   12.5920 O   0  0  0  0  0  0  0  0  0  0  0  0
   30.8610   14.7350   10.0260 N   0  0  0  0  0  0  0  0  0  0  0  0
   31.9200   13.9740    9.7210 C   0  0  0  0  0  0  0  0  0  0  0  0
   31.8970   12.8880    8.9420 N   0  0  0  0  0  0  0  0  0  0  0  0
   28.5950   10.6120    5.7550 C   0  0  0  0  0  0  0  0  0  0  0  0
   27.2790   10.5990    5.7230 N   0  0  0  0  0  0  0  0  0  0  0  0
   24.8497    9.5640    8.8806 H   0  0  0  0  0  0  0  0  0  0  0  0
   23.8507    9.4948    7.3893 H   0  0  0  0  0  0  0  0  0  0  0  0
   25.5127    8.8135    7.3893 H   0  0  0  0  0  0  0  0  0  0  0  0
   24.8692   11.3076    6.4631 H   0  0  0  0  0  0  0  0  0  0  0  0
   25.3061   11.6643    8.1899 H   0  0  0  0  0  0  0  0  0  0  0  0
   27.9725   11.3743    8.8925 H   0  0  0  0  0  0  0  0  0  0  0  0
   28.5539   12.9501    8.2418 H   0  0  0  0  0  0  0  0  0  0  0  0
   27.3851   13.5273    9.4552 H   0  0  0  0  0  0  0  0  0  0  0  0
   25.3098   13.6711    8.3620 H   0  0  0  0  0  0  0  0  0  0  0  0
   22.8940   14.2128    8.5989 H   0  0  0  0  0  0  0  0  0  0  0  0
   22.1328   15.7927   10.3960 H   0  0  0  0  0  0  0  0  0  0  0  0
   26.7407   15.8814   12.7607 H   0  0  0  0  0  0  0  0  0  0  0  0
   27.0643   17.2010   11.6485 H   0  0  0  0  0  0  0  0  0  0  0  0
   24.3852   18.3737   14.2604 H   0  0  0  0  0  0  0  0  0  0  0  0
   27.3138   18.9057   13.5557 H   0  0  0  0  0  0  0  0  0  0  0  0
   25.9105   19.9251   13.0889 H   0  0  0  0  0  0  0  0  0  0  0  0
   27.0943   20.7841   15.1141 H   0  0  0  0  0  0  0  0  0  0  0  0
   25.3756   20.3224   15.4416 H   0  0  0  0  0  0  0  0  0  0  0  0
   26.4705   17.1410   17.0438 H   0  0  0  0  0  0  0  0  0  0  0  0
   32.8906   14.2674   10.1475 H   0  0  0  0  0  0  0  0  0  0  0  0
   29.2447   10.4260    4.8871 H   0  0  0  0  0  0  0  0  0  0  0  0
  1  2  1  0
  2  3  1  0
  3  4  2  0
  4  5  1  0
  5  6  1  0
  6  7  2  0
  6  8  2  0
  6  9  1  0
  9 10  2  0
 10 11  1  0
 11 12  1  0
 12 13  2  0
 12 14  1  0
 14 15  1  0
 15 16  2  0
 16 17  1  0
 17 18  2  0
 18 19  1  0
 19 20  2  0
 20 21  1  0
 21 22  1  0
 22 23  1  0
 23 24  1  0
 24 25  1  0
 25 26  1  0
 26 27  2  0
 26 28  1  0
 28 29  1  0
 29 30  2  0
 22 31  1  0
 31 32  2  0
 11 33  2  0
 33 34  1  0
 34 35  2  0
  5 36  1  0
 36 37  2  0
 37  3  1  0
 35  9  1  0
 20 15  1  0
 29 23  1  0
 31 19  1  0
  1 38  1  0
  1 39  1  0
  1 40  1  0
  2 41  1  0
  2 42  1  0
  4 43  1  0
 10 44  1  0
 14 45  1  0
 16 46  1  0
 17 47  1  0
 18 48  1  0
 21 49  1  0
 21 50  1  0
 23 51  1  1
 24 52  1  0
 24 53  1  0
 25 54  1  0
 25 55  1  0
 28 56  1  0
 34 57  1  0
 36 58  1  0
M  END
>  <meeko>  (946) 
{"is_sidechain": [true], "free_energy": -11.09, "intermolecular_energy": 0.0, "internal_energy": -11.09, "cluster_size": 7, "cluster_id": 1, "rank_in_cluster": 1}

>  <_RMSD_MCS_to_ref>  (946) 
1.9031537276613024

$$$$
ligand
     RDKit          3D

 61 66  0  0  0  0  0  0  0  0999 V2000
   24.8710    9.6160    7.7820 C   0  0  0  0  0  0  0  0  0  0  0  0
   25.4240   10.9650    7.3490 C   0  0  0  0  0  0  0  0  0  0  0  0
   26.8130   11.1840    7.8340 C   0  0  0  0  0  0  0  0  0  0  0  0
   27.3160   12.2350    8.5750 C   0  0  0  0  0  0  0  0  0  0  0  0
   28.6350   11.9220    8.7500 N   0  0  0  0  0  0  0  0  0  0  0  0
   29.8120   12.9160    9.4400 S   0  0  0  0  0  6  0  0  0  0  0  0
   31.0650   12.3950    8.9240 O   0  0  0  0  0  0  0  0  0  0  0  0
   29.5330   12.8780   10.8630 O   0  0  0  0  0  0  0  0  0  0  0  0
   29.6340   14.4420    8.8770 O   0  0  0  0  0  0  0  0  0  0  0  0
   29.0610   14.6560    7.6380 C   0  0  0  0  0  0  0  0  0  0  0  0
   27.7460   15.1750    7.5770 C   0  0  0  0  0  0  0  0  0  0  0  0
   26.9780   15.5100    8.7910 C   0  0  0  0  0  0  0  0  0  0  0  0
   25.7540   14.8560    9.0790 C   0  0  0  0  0  0  0  0  0  0  0  0
   25.0280   15.1400   10.2400 C   0  0  0  0  0  0  0  0  0  0  0  0
   25.5550   16.0800   11.1030 C   0  0  0  0  0  0  0  0  0  0  0  0
   26.7490   16.7460   10.8460 C   0  0  0  0  0  0  0  0  0  0  0  0
   27.4610   16.4830    9.6890 C   0  0  0  0  0  0  0  0  0  0  0  0
   27.0630   17.6870   11.9610 C   0  0  0  0  0  0  0  0  0  0  0  0
   25.9760   17.4360   12.9000 N   0  0  0  0  0  0  0  0  0  0  0  0
   25.7040   18.2800   14.0560 C   0  0  1  0  0  0  0  0  0  0  0  0
   26.3040   17.7210   15.3420 C   0  0  0  0  0  0  0  0  0  0  0  0
   25.9020   18.6040   16.5130 C   0  0  0  0  0  0  0  0  0  0  0  0
   26.3090   20.0400   16.2780 C   0  0  0  0  0  0  0  0  0  0  0  0
   26.6890   20.7730   17.1860 O   0  0  0  0  0  0  0  0  0  0  0  0
   26.2150   20.5010   14.9900 N   0  0  0  0  0  0  0  0  0  0  0  0
   26.2050   19.7210   13.8550 C   0  0  0  0  0  0  0  0  0  0  0  0
   26.5870   20.1840   12.7830 O   0  0  0  0  0  0  0  0  0  0  0  0
   25.0340   16.5580   12.3880 C   0  0  0  0  0  0  0  0  0  0  0  0
   23.9750   16.2230   12.8810 O   0  0  0  0  0  0  0  0  0  0  0  0
   27.1670   15.3860    6.3140 C   0  0  0  0  0  0  0  0  0  0  0  0
   27.8390   15.0800    5.1260 C   0  0  0  0  0  0  0  0  0  0  0  0
   29.1170   14.5290    5.2280 C   0  0  0  0  0  0  0  0  0  0  0  0
   29.9780   14.1090    4.2390 N   0  0  0  0  0  0  0  0  0  0  0  0
   31.1230   13.6050    4.7930 C   0  0  0  0  0  0  0  0  0  0  0  0
   31.0050   13.7020    6.1590 C   0  0  0  0  0  0  0  0  0  0  0  0
   29.7440   14.2970    6.4530 C   0  0  0  0  0  0  0  0  0  0  0  0
   28.9030   10.7540    8.1090 C   0  0  0  0  0  0  0  0  0  0  0  0
   27.8130   10.2770    7.5410 N   0  0  0  0  0  0  0  0  0  0  0  0
   24.8497    9.5640    8.8806 H   0  0  0  0  0  0  0  0  0  0  0  0
   23.8507    9.4948    7.3893 H   0  0  0  0  0  0  0  0  0  0  0  0
   25.5127    8.8135    7.3893 H   0  0  0  0  0  0  0  0  0  0  0  0
   25.4206   11.0132    6.2501 H   0  0  0  0  0  0  0  0  0  0  0  0
   24.7862   11.7477    7.7856 H   0  0  0  0  0  0  0  0  0  0  0  0
   26.7779   13.1219    8.9410 H   0  0  0  0  0  0  0  0  0  0  0  0
   25.3660   14.1074    8.3726 H   0  0  0  0  0  0  0  0  0  0  0  0
   24.0753   14.6347   10.4569 H   0  0  0  0  0  0  0  0  0  0  0  0
   28.3925   17.0266    9.4728 H   0  0  0  0  0  0  0  0  0  0  0  0
   28.0395   17.4571   12.4123 H   0  0  0  0  0  0  0  0  0  0  0  0
   27.1338   18.7374   11.6421 H   0  0  0  0  0  0  0  0  0  0  0  0
   24.6084   18.2913   14.1539 H   0  0  0  0  0  0  0  0  0  0  0  0
   25.9305   16.6997   15.5075 H   0  0  0  0  0  0  0  0  0  0  0  0
   27.4005   17.7005   15.2570 H   0  0  0  0  0  0  0  0  0  0  0  0
   24.8104   18.5565   16.6403 H   0  0  0  0  0  0  0  0  0  0  0  0
   26.4135   18.2398   17.4162 H   0  0  0  0  0  0  0  0  0  0  0  0
   26.1458   21.5204   14.8599 H   0  0  0  0  0  0  0  0  0  0  0  0
   26.1518   15.8057    6.2578 H   0  0  0  0  0  0  0  0  0  0  0  0
   27.3763   15.2671    4.1458 H   0  0  0  0  0  0  0  0  0  0  0  0
   29.7876   14.1660    3.2283 H   0  0  0  0  0  0  0  0  0  0  0  0
   31.9836   13.1956    4.2437 H   0  0  0  0  0  0  0  0  0  0  0  0
   31.7535   13.3770    6.8966 H   0  0  0  0  0  0  0  0  0  0  0  0
   29.8917   10.2735    8.0696 H   0  0  0  0  0  0  0  0  0  0  0  0
  1  2  1  0
  2  3  1  0
  3  4  2  0
  4  5  1  0
  5  6  1  0
  6  7  2  0
  6  8  2  0
  6  9  1  0
  9 10  1  0
 10 11  1  0
 11 12  1  0
 12 13  2  0
 13 14  1  0
 14 15  2  0
 15 16  1  0
 16 17  2  0
 16 18  1  0
 18 19  1  0
 19 20  1  0
 20 21  1  0
 21 22  1  0
 22 23  1  0
 23 24  2  0
 23 25  1  0
 25 26  1  0
 26 27  2  0
 19 28  1  0
 28 29  2  0
 11 30  2  0
 30 31  1  0
 31 32  2  0
 32 33  1  0
 33 34  1  0
 34 35  2  0
 35 36  1  0
  5 37  1  0
 37 38  2  0
 38  3  1  0
 36 10  2  0
 17 12  1  0
 26 20  1  0
 36 32  1  0
 28 15  1  0
  1 39  1  0
  1 40  1  0
  1 41  1  0
  2 42  1  0
  2 43  1  0
  4 44  1  0
 13 45  1  0
 14 46  1  0
 17 47  1  0
 18 48  1  0
 18 49  1  0
 20 50  1  1
 21 51  1  0
 21 52  1  0
 22 53  1  0
 22 54  1  0
 25 55  1  0
 30 56  1  0
 31 57  1  0
 33 58  1  0
 34 59  1  0
 35 60  1  0
 37 61  1  0
M  END
>  <meeko>  (947) 
{"is_sidechain": [true], "free_energy": -11.09, "intermolecular_energy": 0.0, "internal_energy": -11.09, "cluster_size": 10, "cluster_id": 1, "rank_in_cluster": 1}

>  <_RMSD_MCS_to_ref>  (947) 
1.4121513076825276

$$$$
ligand
     RDKit          3D

 45 48  0  0  0  0  0  0  0  0999 V2000
   24.8710    9.6160    7.7820 C   0  0  0  0  0  0  0  0  0  0  0  0
   25.4240   10.9650    7.3490 C   0  0  0  0  0  0  0  0  0  0  0  0
   26.4880   11.4560    8.2660 C   0  0  0  0  0  0  0  0  0  0  0  0
   27.2370   12.6130    8.1830 C   0  0  0  0  0  0  0  0  0  0  0  0
   28.0810   12.5460    9.2570 N   0  0  0  0  0  0  0  0  0  0  0  0
   29.1220   13.7720    9.7770 S   0  0  0  0  0  6  0  0  0  0  0  0
   29.8730   14.1360    8.5890 O   0  0  0  0  0  0  0  0  0  0  0  0
   29.7940   13.2040   10.9320 O   0  0  0  0  0  0  0  0  0  0  0  0
   28.2300   15.0490   10.2710 O   0  0  0  0  0  0  0  0  0  0  0  0
   27.2880   15.5770    9.4850 C   0  0  0  0  0  0  0  0  0  0  0  0
   27.4320   15.4940    7.7790 S   0  0  0  0  0  0  0  0  0  0  0  0
   25.9510   16.3120    7.5420 C   0  0  0  0  0  0  0  0  0  0  0  0
   25.3640   16.6720    8.7350 C   0  0  0  0  0  0  0  0  0  0  0  0
   26.1480   16.2680    9.8560 C   0  0  0  0  0  0  0  0  0  0  0  0
   25.7510   16.5310   11.2350 C   0  0  0  0  0  0  0  0  0  0  0  0
   26.2850   17.4070   12.1480 C   0  0  0  0  0  0  0  0  0  0  0  0
   25.4250   17.3320   13.2070 N   0  0  0  0  0  0  0  0  0  0  0  0
   25.4110   18.1600   14.4000 C   0  0  1  0  0  0  0  0  0  0  0  0
   26.3120   17.6150   15.5110 C   0  0  0  0  0  0  0  0  0  0  0  0
   26.2760   18.5500   16.7080 C   0  0  0  0  0  0  0  0  0  0  0  0
   26.6800   19.9510   16.3140 C   0  0  0  0  0  0  0  0  0  0  0  0
   27.0800   20.7730   17.1310 O   0  0  0  0  0  0  0  0  0  0  0  0
   26.4870   20.2930   14.9990 N   0  0  0  0  0  0  0  0  0  0  0  0
   25.7740   19.5930   14.0530 C   0  0  0  0  0  0  0  0  0  0  0  0
   25.3810   20.1620   13.0360 O   0  0  0  0  0  0  0  0  0  0  0  0
   24.4610   16.4150   12.9880 N   0  0  0  0  0  0  0  0  0  0  0  0
   24.6420   15.9330   11.7660 N   0  0  0  0  0  0  0  0  0  0  0  0
   27.8010   11.4240    9.9700 C   0  0  0  0  0  0  0  0  0  0  0  0
   26.8380   10.7330    9.3900 N   0  0  0  0  0  0  0  0  0  0  0  0
   24.8497    9.5640    8.8806 H   0  0  0  0  0  0  0  0  0  0  0  0
   23.8507    9.4948    7.3893 H   0  0  0  0  0  0  0  0  0  0  0  0
   25.5127    8.8135    7.3893 H   0  0  0  0  0  0  0  0  0  0  0  0
   25.8452   10.8672    6.3376 H   0  0  0  0  0  0  0  0  0  0  0  0
   24.5982   11.6913    7.3698 H   0  0  0  0  0  0  0  0  0  0  0  0
   27.1701   13.4077    7.4254 H   0  0  0  0  0  0  0  0  0  0  0  0
   25.5176   16.5259    6.5539 H   0  0  0  0  0  0  0  0  0  0  0  0
   24.4059   17.2067    8.8137 H   0  0  0  0  0  0  0  0  0  0  0  0
   27.1909   18.0233   12.0499 H   0  0  0  0  0  0  0  0  0  0  0  0
   24.3854   18.1385   14.7971 H   0  0  0  0  0  0  0  0  0  0  0  0
   25.9560   16.6194   15.8145 H   0  0  0  0  0  0  0  0  0  0  0  0
   27.3443   17.5418   15.1383 H   0  0  0  0  0  0  0  0  0  0  0  0
   25.2550   18.5717   17.1167 H   0  0  0  0  0  0  0  0  0  0  0  0
   26.9858   18.1801   17.4626 H   0  0  0  0  0  0  0  0  0  0  0  0
   26.9244   21.1712   14.6854 H   0  0  0  0  0  0  0  0  0  0  0  0
   28.3071   11.1319   10.9020 H   0  0  0  0  0  0  0  0  0  0  0  0
  1  2  1  0
  2  3  1  0
  3  4  2  0
  4  5  1  0
  5  6  1  0
  6  7  2  0
  6  8  2  0
  6  9  1  0
  9 10  1  0
 10 11  1  0
 11 12  1  0
 12 13  2  0
 13 14  1  0
 14 15  1  0
 15 16  2  0
 16 17  1  0
 17 18  1  0
 18 19  1  0
 19 20  1  0
 20 21  1  0
 21 22  2  0
 21 23  1  0
 23 24  1  0
 24 25  2  0
 17 26  1  0
 26 27  2  0
  5 28  1  0
 28 29  2  0
 29  3  1  0
 14 10  2  0
 27 15  1  0
 24 18  1  0
  1 30  1  0
  1 31  1  0
  1 32  1  0
  2 33  1  0
  2 34  1  0
  4 35  1  0
 12 36  1  0
 13 37  1  0
 16 38  1  0
 18 39  1  1
 19 40  1  0
 19 41  1  0
 20 42  1  0
 20 43  1  0
 23 44  1  0
 28 45  1  0
M  END
>  <meeko>  (948) 
{"is_sidechain": [true], "free_energy": -11.09, "intermolecular_energy": 0.0, "internal_energy": -11.09, "cluster_size": 10, "cluster_id": 1, "rank_in_cluster": 1}

>  <_RMSD_MCS_to_ref>  (948) 
0.6343363110807673

$$$$
ligand
     RDKit          3D

 54 58  0  0  0  0  0  0  0  0999 V2000
   24.8710    9.6160    7.7820 C   0  0  0  0  0  0  0  0  0  0  0  0
   25.4240   10.9650    7.3490 C   0  0  0  0  0  0  0  0  0  0  0  0
   26.8460   11.1450    7.7470 C   0  0  0  0  0  0  0  0  0  0  0  0
   27.4170   12.1570    8.4920 C   0  0  0  0  0  0  0  0  0  0  0  0
   28.7350   11.8100    8.5780 N   0  0  0  0  0  0  0  0  0  0  0  0
   29.9770   12.7710    9.1970 S   0  0  0  0  0  6  0  0  0  0  0  0
   31.1930   12.1180    8.7480 O   0  0  0  0  0  0  0  0  0  0  0  0
   29.6790   12.9100   10.6100 O   0  0  0  0  0  0  0  0  0  0  0  0
   29.8940   14.2370    8.4770 O   0  0  0  0  0  0  0  0  0  0  0  0
   29.1190   14.4230    7.3940 C   0  0  0  0  0  0  0  0  0  0  0  0
   29.4900   14.1650    6.1030 C   0  0  0  0  0  0  0  0  0  0  0  0
   28.4100   14.5180    5.3480 N   0  0  0  0  0  0  0  0  0  0  0  0
   27.3870   15.0090    6.0670 N   0  0  0  0  0  0  0  0  0  0  0  0
   27.7880   14.9070    7.3460 C   0  0  0  0  0  0  0  0  0  0  0  0
   26.9380   15.3230    8.4610 C   0  0  0  0  0  0  0  0  0  0  0  0
   25.6290   14.8010    8.5950 C   0  0  0  0  0  0  0  0  0  0  0  0
   24.8250   15.1470    9.6850 C   0  0  0  0  0  0  0  0  0  0  0  0
   25.3600   16.0100   10.6200 C   0  0  0  0  0  0  0  0  0  0  0  0
   26.6400   16.5450   10.5040 C   0  0  0  0  0  0  0  0  0  0  0  0
   27.4390   16.2200    9.4210 C   0  0  0  0  0  0  0  0  0  0  0  0
   26.9270   17.4420   11.6610 C   0  0  0  0  0  0  0  0  0  0  0  0
   25.7270   17.2980   12.4780 N   0  0  0  0  0  0  0  0  0  0  0  0
   25.4220   18.1530   13.6180 C   0  0  1  0  0  0  0  0  0  0  0  0
   25.9780   17.5990   14.9260 C   0  0  0  0  0  0  0  0  0  0  0  0
   25.5430   18.4920   16.0780 C   0  0  0  0  0  0  0  0  0  0  0  0
   25.9660   19.9250   15.8470 C   0  0  0  0  0  0  0  0  0  0  0  0
   26.3190   20.6610   16.7620 O   0  0  0  0  0  0  0  0  0  0  0  0
   25.9180   20.3770   14.5530 N   0  0  0  0  0  0  0  0  0  0  0  0
   25.9360   19.5890   13.4230 C   0  0  0  0  0  0  0  0  0  0  0  0
   26.3490   20.0450   12.3600 O   0  0  0  0  0  0  0  0  0  0  0  0
   24.7580   16.5270   11.8530 C   0  0  0  0  0  0  0  0  0  0  0  0
   23.6240   16.3000   12.2260 O   0  0  0  0  0  0  0  0  0  0  0  0
   28.9420   10.6760    7.8600 C   0  0  0  0  0  0  0  0  0  0  0  0
   27.8080   10.2340    7.3550 N   0  0  0  0  0  0  0  0  0  0  0  0
   24.8497    9.5640    8.8806 H   0  0  0  0  0  0  0  0  0  0  0  0
   23.8507    9.4948    7.3893 H   0  0  0  0  0  0  0  0  0  0  0  0
   25.5127    8.8135    7.3893 H   0  0  0  0  0  0  0  0  0  0  0  0
   25.3503   11.0429    6.2542 H   0  0  0  0  0  0  0  0  0  0  0  0
   24.8329   11.7473    7.8475 H   0  0  0  0  0  0  0  0  0  0  0  0
   26.9227   13.0419    8.9193 H   0  0  0  0  0  0  0  0  0  0  0  0
   30.4503   13.7608    5.7503 H   0  0  0  0  0  0  0  0  0  0  0  0
   28.3816   14.4175    4.3233 H   0  0  0  0  0  0  0  0  0  0  0  0
   25.2388   14.1132    7.8304 H   0  0  0  0  0  0  0  0  0  0  0  0
   23.8060   14.7472    9.7933 H   0  0  0  0  0  0  0  0  0  0  0  0
   28.4440   16.6541    9.3139 H   0  0  0  0  0  0  0  0  0  0  0  0
   27.8222   17.1111   12.2079 H   0  0  0  0  0  0  0  0  0  0  0  0
   27.1359   18.4816   11.3684 H   0  0  0  0  0  0  0  0  0  0  0  0
   24.3239   18.1723   13.6804 H   0  0  0  0  0  0  0  0  0  0  0  0
   25.5942   16.5806   15.0859 H   0  0  0  0  0  0  0  0  0  0  0  0
   27.0765   17.5721   14.8763 H   0  0  0  0  0  0  0  0  0  0  0  0
   24.4476   18.4513   16.1700 H   0  0  0  0  0  0  0  0  0  0  0  0
   26.0226   18.1309   16.9997 H   0  0  0  0  0  0  0  0  0  0  0  0
   25.8637   21.3961   14.4136 H   0  0  0  0  0  0  0  0  0  0  0  0
   29.9205   10.1935    7.7195 H   0  0  0  0  0  0  0  0  0  0  0  0
  1  2  1  0
  2  3  1  0
  3  4  2  0
  4  5  1  0
  5  6  1  0
  6  7  2  0
  6  8  2  0
  6  9  1  0
  9 10  1  0
 10 11  2  0
 11 12  1  0
 12 13  1  0
 13 14  2  0
 14 15  1  0
 15 16  2  0
 16 17  1  0
 17 18  2  0
 18 19  1  0
 19 20  2  0
 19 21  1  0
 21 22  1  0
 22 23  1  0
 23 24  1  0
 24 25  1  0
 25 26  1  0
 26 27  2  0
 26 28  1  0
 28 29  1  0
 29 30  2  0
 22 31  1  0
 31 32  2  0
  5 33  1  0
 33 34  2  0
 34  3  1  0
 14 10  1  0
 20 15  1  0
 29 23  1  0
 31 18  1  0
  1 35  1  0
  1 36  1  0
  1 37  1  0
  2 38  1  0
  2 39  1  0
  4 40  1  0
 11 41  1  0
 12 42  1  0
 16 43  1  0
 17 44  1  0
 20 45  1  0
 21 46  1  0
 21 47  1  0
 23 48  1  1
 24 49  1  0
 24 50  1  0
 25 51  1  0
 25 52  1  0
 28 53  1  0
 33 54  1  0
M  END
>  <meeko>  (949) 
{"is_sidechain": [true], "free_energy": -11.09, "intermolecular_energy": 0.0, "internal_energy": -11.09, "cluster_size": 14, "cluster_id": 1, "rank_in_cluster": 1}

>  <_RMSD_MCS_to_ref>  (949) 
1.496026368329396

$$$$
ligand
     RDKit          3D

 55 59  0  0  0  0  0  0  0  0999 V2000
   24.8540    9.4020    7.6050 C   0  0  0  0  0  0  0  0  0  0  0  0
   25.5230   10.7550    7.4270 C   0  0  0  0  0  0  0  0  0  0  0  0
   25.1840   11.3820    6.1200 C   0  0  0  0  0  0  0  0  0  0  0  0
   25.7210   12.5100    5.5310 C   0  0  0  0  0  0  0  0  0  0  0  0
   25.0720   12.6030    4.3330 N   0  0  0  0  0  0  0  0  0  0  0  0
   25.1340   13.9170    3.2800 S   0  0  0  0  0  6  0  0  0  0  0  0
   24.2850   13.5410    2.1640 O   0  0  0  0  0  0  0  0  0  0  0  0
   26.5490   14.1810    3.0980 O   0  0  0  0  0  0  0  0  0  0  0  0
   24.4540   15.1650    4.0760 O   0  0  0  0  0  0  0  0  0  0  0  0
   24.9690   15.6680    5.2450 C   0  0  0  0  0  0  0  0  0  0  0  0
   26.1320   16.4320    5.0930 C   0  0  0  0  0  0  0  0  0  0  0  0
   26.7560   17.0040    6.2030 C   0  0  0  0  0  0  0  0  0  0  0  0
   26.2110   16.8070    7.4750 C   0  0  0  0  0  0  0  0  0  0  0  0
   26.8430   17.4160    8.6890 C   0  0  0  0  0  0  0  0  0  0  0  0
   27.8990   18.0230    8.5490 O   0  0  0  0  0  0  0  0  0  0  0  0
   26.2290   17.3030    9.9250 N   0  0  0  0  0  0  0  0  0  0  0  0
   25.1640   16.5700    9.9840 C   0  0  0  0  0  0  0  0  0  0  0  0
   24.3550   16.3590   11.2180 C   0  0  0  0  0  0  0  0  0  0  0  0
   24.5900   16.8080   12.5930 C   0  0  0  0  0  0  0  0  0  0  0  0
   24.0200   16.2840   13.5440 O   0  0  0  0  0  0  0  0  0  0  0  0
   25.4960   17.8340   12.7100 N   0  0  0  0  0  0  0  0  0  0  0  0
   26.0910   18.1550   13.9960 C   0  0  2  0  0  0  0  0  0  0  0  0
   25.0140   18.4200   15.0400 C   0  0  0  0  0  0  0  0  0  0  0  0
   25.6700   18.7560   16.3700 C   0  0  0  0  0  0  0  0  0  0  0  0
   26.6220   19.9210   16.2350 C   0  0  0  0  0  0  0  0  0  0  0  0
   26.8040   20.7290   17.1420 O   0  0  0  0  0  0  0  0  0  0  0  0
   27.3070   20.0210   15.0510 N   0  0  0  0  0  0  0  0  0  0  0  0
   26.9790   19.4040   13.8660 C   0  0  0  0  0  0  0  0  0  0  0  0
   27.3970   19.8460   12.7960 O   0  0  0  0  0  0  0  0  0  0  0  0
   23.3540   15.5780   10.7650 C   0  0  0  0  0  0  0  0  0  0  0  0
   23.4140   15.3130    9.3960 N   0  0  0  0  0  0  0  0  0  0  0  0
   24.5770   15.8670    8.9450 N   0  0  0  0  0  0  0  0  0  0  0  0
   25.0490   16.0380    7.6400 C   0  0  0  0  0  0  0  0  0  0  0  0
   24.4270   15.4750    6.5190 C   0  0  0  0  0  0  0  0  0  0  0  0
   24.1360   11.6230    4.2580 C   0  0  0  0  0  0  0  0  0  0  0  0
   24.1950   10.8470    5.3190 N   0  0  0  0  0  0  0  0  0  0  0  0
   24.7464    9.1845    8.6779 H   0  0  0  0  0  0  0  0  0  0  0  0
   23.8606    9.4192    7.1330 H   0  0  0  0  0  0  0  0  0  0  0  0
   25.4708    8.6230    7.1330 H   0  0  0  0  0  0  0  0  0  0  0  0
   25.1929   11.4227    8.2365 H   0  0  0  0  0  0  0  0  0  0  0  0
   26.6116   10.5999    7.4550 H   0  0  0  0  0  0  0  0  0  0  0  0
   26.4944   13.1801    5.9345 H   0  0  0  0  0  0  0  0  0  0  0  0
   26.5579   16.5830    4.0901 H   0  0  0  0  0  0  0  0  0  0  0  0
   27.6689   17.6047    6.0777 H   0  0  0  0  0  0  0  0  0  0  0  0
   25.7562   18.3815   11.8773 H   0  0  0  0  0  0  0  0  0  0  0  0
   26.6973   17.2947   14.3156 H   0  0  0  0  0  0  0  0  0  0  0  0
   24.3887   19.2649   14.7156 H   0  0  0  0  0  0  0  0  0  0  0  0
   24.3871   17.5236   15.1562 H   0  0  0  0  0  0  0  0  0  0  0  0
   24.8884   19.0149   17.0995 H   0  0  0  0  0  0  0  0  0  0  0  0
   26.2416   17.8783   16.7061 H   0  0  0  0  0  0  0  0  0  0  0  0
   28.1482   20.6154   15.0489 H   0  0  0  0  0  0  0  0  0  0  0  0
   22.5601   15.1843   11.4167 H   0  0  0  0  0  0  0  0  0  0  0  0
   22.7177   14.8003    8.8363 H   0  0  0  0  0  0  0  0  0  0  0  0
   23.5101   14.8797    6.6411 H   0  0  0  0  0  0  0  0  0  0  0  0
   23.4272   11.4953    3.4265 H   0  0  0  0  0  0  0  0  0  0  0  0
  1  2  1  0
  2  3  1  0
  3  4  2  0
  4  5  1  0
  5  6  1  0
  6  7  2  0
  6  8  2  0
  6  9  1  0
  9 10  1  0
 10 11  2  0
 11 12  1  0
 12 13  2  0
 13 14  1  0
 14 15  2  0
 14 16  1  0
 16 17  2  0
 17 18  1  0
 18 19  1  0
 19 20  2  0
 19 21  1  0
 21 22  1  0
 22 23  1  0
 23 24  1  0
 24 25  1  0
 25 26  2  0
 25 27  1  0
 27 28  1  0
 28 29  2  0
 18 30  2  0
 30 31  1  0
 31 32  1  0
 32 33  1  0
 33 34  2  0
  5 35  1  0
 35 36  2  0
 36  3  1  0
 34 10  1  0
 33 13  1  0
 32 17  1  0
 28 22  1  0
  1 37  1  0
  1 38  1  0
  1 39  1  0
  2 40  1  0
  2 41  1  0
  4 42  1  0
 11 43  1  0
 12 44  1  0
 21 45  1  0
 22 46  1  1
 23 47  1  0
 23 48  1  0
 24 49  1  0
 24 50  1  0
 27 51  1  0
 30 52  1  0
 31 53  1  0
 34 54  1  0
 35 55  1  0
M  END
>  <meeko>  (950) 
{"is_sidechain": [true], "free_energy": -11.08, "intermolecular_energy": 0.0, "internal_energy": -11.08, "cluster_size": 20, "cluster_id": 1, "rank_in_cluster": 1}

>  <_RMSD_MCS_to_ref>  (950) 
1.5373238291119902

$$$$
ligand
     RDKit          3D

 54 58  0  0  0  0  0  0  0  0999 V2000
   24.8540    9.4020    7.6050 C   0  0  0  0  0  0  0  0  0  0  0  0
   25.5230   10.7550    7.4270 C   0  0  0  0  0  0  0  0  0  0  0  0
   24.9680   11.5090    6.2700 C   0  0  0  0  0  0  0  0  0  0  0  0
   25.3420   12.7440    5.7770 C   0  0  0  0  0  0  0  0  0  0  0  0
   24.4900   12.9600    4.7310 N   0  0  0  0  0  0  0  0  0  0  0  0
   24.5910   14.2140    3.6200 S   0  0  0  0  0  6  0  0  0  0  0  0
   23.2250   14.6610    3.4350 O   0  0  0  0  0  0  0  0  0  0  0  0
   25.4030   13.6940    2.5360 O   0  0  0  0  0  0  0  0  0  0  0  0
   25.4940   15.5390    4.3800 C   0  0  0  0  0  0  0  0  0  0  0  0
   26.3700   16.3520    3.6390 C   0  0  0  0  0  0  0  0  0  0  0  0
   27.0720   17.3890    4.2500 C   0  0  0  0  0  0  0  0  0  0  0  0
   26.9180   17.6400    5.6130 C   0  0  0  0  0  0  0  0  0  0  0  0
   26.0470   16.8440    6.3810 C   0  0  0  0  0  0  0  0  0  0  0  0
   25.8140   16.9990    7.7350 N   0  0  0  0  0  0  0  0  0  0  0  0
   24.9520   16.1000    8.1560 C   0  0  0  0  0  0  0  0  0  0  0  0
   24.5350   16.0360    9.5330 C   0  0  0  0  0  0  0  0  0  0  0  0
   23.3270   15.6330   10.0850 C   0  0  0  0  0  0  0  0  0  0  0  0
   23.4340   15.7630   11.4910 C   0  0  0  0  0  0  0  0  0  0  0  0
   24.7030   16.2390   11.7440 C   0  0  0  0  0  0  0  0  0  0  0  0
   25.3720   16.5590   12.9860 C   0  0  0  0  0  0  0  0  0  0  0  0
   25.7770   15.7150   13.7800 O   0  0  0  0  0  0  0  0  0  0  0  0
   25.5300   17.9080   13.2130 N   0  0  0  0  0  0  0  0  0  0  0  0
   26.2960   18.4230   14.3310 C   0  0  2  0  0  0  0  0  0  0  0  0
   25.7410   17.9480   15.6710 C   0  0  0  0  0  0  0  0  0  0  0  0
   26.5710   18.5340   16.8020 C   0  0  0  0  0  0  0  0  0  0  0  0
   26.6240   20.0400   16.7200 C   0  0  0  0  0  0  0  0  0  0  0  0
   26.6810   20.7530   17.7170 O   0  0  0  0  0  0  0  0  0  0  0  0
   26.6390   20.5870   15.4610 N   0  0  0  0  0  0  0  0  0  0  0  0
   26.2760   19.9540   14.2970 C   0  0  0  0  0  0  0  0  0  0  0  0
   25.9750   20.6000   13.2950 O   0  0  0  0  0  0  0  0  0  0  0  0
   25.3700   16.4030   10.5630 O   0  0  0  0  0  0  0  0  0  0  0  0
   24.3730   15.0260    6.9550 S   0  0  0  0  0  0  0  0  0  0  0  0
   25.3480   15.8070    5.7600 C   0  0  0  0  0  0  0  0  0  0  0  0
   23.6680   11.8860    4.5970 C   0  0  0  0  0  0  0  0  0  0  0  0
   23.9390   10.9810    5.5140 N   0  0  0  0  0  0  0  0  0  0  0  0
   24.7464    9.1845    8.6779 H   0  0  0  0  0  0  0  0  0  0  0  0
   23.8606    9.4192    7.1330 H   0  0  0  0  0  0  0  0  0  0  0  0
   25.4708    8.6230    7.1330 H   0  0  0  0  0  0  0  0  0  0  0  0
   25.3722   11.3477    8.3413 H   0  0  0  0  0  0  0  0  0  0  0  0
   26.5919   10.5804    7.2347 H   0  0  0  0  0  0  0  0  0  0  0  0
   26.1430   13.4031    6.1430 H   0  0  0  0  0  0  0  0  0  0  0  0
   26.5028   16.1669    2.5629 H   0  0  0  0  0  0  0  0  0  0  0  0
   27.7524   18.0140    3.6530 H   0  0  0  0  0  0  0  0  0  0  0  0
   27.4769   18.4597    6.0880 H   0  0  0  0  0  0  0  0  0  0  0  0
   22.4461   15.2771    9.5307 H   0  0  0  0  0  0  0  0  0  0  0  0
   22.6577   15.5301   12.2347 H   0  0  0  0  0  0  0  0  0  0  0  0
   25.0879   18.5754   12.5649 H   0  0  0  0  0  0  0  0  0  0  0  0
   27.3243   18.0444   14.2348 H   0  0  0  0  0  0  0  0  0  0  0  0
   24.6970   18.2791   15.7732 H   0  0  0  0  0  0  0  0  0  0  0  0
   25.7845   16.8498   15.7164 H   0  0  0  0  0  0  0  0  0  0  0  0
   26.1226   18.2431   17.7634 H   0  0  0  0  0  0  0  0  0  0  0  0
   27.5966   18.1454   16.7174 H   0  0  0  0  0  0  0  0  0  0  0  0
   26.9522   21.5650   15.3815 H   0  0  0  0  0  0  0  0  0  0  0  0
   22.8859   11.7868    3.8299 H   0  0  0  0  0  0  0  0  0  0  0  0
  1  2  1  0
  2  3  1  0
  3  4  2  0
  4  5  1  0
  5  6  1  0
  6  7  2  0
  6  8  2  0
  6  9  1  0
  9 10  2  0
 10 11  1  0
 11 12  2  0
 12 13  1  0
 13 14  1  0
 14 15  2  0
 15 16  1  0
 16 17  2  0
 17 18  1  0
 18 19  2  0
 19 20  1  0
 20 21  2  0
 20 22  1  0
 22 23  1  0
 23 24  1  0
 24 25  1  0
 25 26  1  0
 26 27  2  0
 26 28  1  0
 28 29  1  0
 29 30  2  0
 19 31  1  0
 15 32  1  0
 32 33  1  0
  5 34  1  0
 34 35  2  0
 35  3  1  0
 33  9  1  0
 33 13  2  0
 31 16  1  0
 29 23  1  0
  1 36  1  0
  1 37  1  0
  1 38  1  0
  2 39  1  0
  2 40  1  0
  4 41  1  0
 10 42  1  0
 11 43  1  0
 12 44  1  0
 17 45  1  0
 18 46  1  0
 22 47  1  0
 23 48  1  6
 24 49  1  0
 24 50  1  0
 25 51  1  0
 25 52  1  0
 28 53  1  0
 34 54  1  0
M  END
>  <meeko>  (951) 
{"is_sidechain": [true], "free_energy": -11.08, "intermolecular_energy": 0.0, "internal_energy": -11.08, "cluster_size": 9, "cluster_id": 2, "rank_in_cluster": 1}

>  <_RMSD_MCS_to_ref>  (951) 
0.9317959957940236

$$$$
ligand
     RDKit          3D

 63 68  0  0  0  0  0  0  0  0999 V2000
   24.8540    9.4020    7.6050 C   0  0  0  0  0  0  0  0  0  0  0  0
   25.5230   10.7550    7.4270 C   0  0  0  0  0  0  0  0  0  0  0  0
   26.7180   10.6800    6.5420 C   0  0  0  0  0  0  0  0  0  0  0  0
   27.0000   11.4010    5.3980 C   0  0  0  0  0  0  0  0  0  0  0  0
   28.2020   10.9080    4.9790 N   0  0  0  0  0  0  0  0  0  0  0  0
   29.1580   11.5570    3.7660 S   0  0  0  0  0  6  0  0  0  0  0  0
   28.5050   11.2410    2.5120 O   0  0  0  0  0  0  0  0  0  0  0  0
   30.5240   11.1840    4.0740 O   0  0  0  0  0  0  0  0  0  0  0  0
   29.1150   13.2590    3.8840 C   0  0  0  0  0  0  0  0  0  0  0  0
   29.7140   14.1560    3.0000 C   0  0  0  0  0  0  0  0  0  0  0  0
   29.4800   15.4230    3.3410 N   0  0  0  0  0  0  0  0  0  0  0  0
   28.7390   15.3530    4.4820 N   0  0  0  0  0  0  0  0  0  0  0  0
   28.3170   16.5340    5.1540 C   0  0  0  0  0  0  0  0  0  0  0  0
   28.5170   17.8000    4.5930 C   0  0  0  0  0  0  0  0  0  0  0  0
   28.0910   18.9390    5.2770 C   0  0  0  0  0  0  0  0  0  0  0  0
   27.4660   18.8210    6.5210 C   0  0  0  0  0  0  0  0  0  0  0  0
   27.2530   17.5650    7.1090 C   0  0  0  0  0  0  0  0  0  0  0  0
   26.5920   17.4420    8.4210 C   0  0  0  0  0  0  0  0  0  0  0  0
   25.3580   16.7530    8.5450 C   0  0  0  0  0  0  0  0  0  0  0  0
   24.7110   16.6230    9.7780 C   0  0  0  0  0  0  0  0  0  0  0  0
   25.3210   17.1910   10.8760 C   0  0  0  0  0  0  0  0  0  0  0  0
   26.5290   17.8770   10.7930 C   0  0  0  0  0  0  0  0  0  0  0  0
   27.1740   18.0110    9.5740 C   0  0  0  0  0  0  0  0  0  0  0  0
   26.9190   18.3910   12.1380 C   0  0  0  0  0  0  0  0  0  0  0  0
   25.8750   17.8500   13.0000 N   0  0  0  0  0  0  0  0  0  0  0  0
   25.6730   18.2720   14.3800 C   0  0  1  0  0  0  0  0  0  0  0  0
   26.6370   17.5900   15.3460 C   0  0  0  0  0  0  0  0  0  0  0  0
   26.3050   18.0070   16.7710 C   0  0  0  0  0  0  0  0  0  0  0  0
   26.3280   19.5110   16.9170 C   0  0  0  0  0  0  0  0  0  0  0  0
   26.7210   20.0650   17.9400 O   0  0  0  0  0  0  0  0  0  0  0  0
   25.8670   20.2380   15.8500 N   0  0  0  0  0  0  0  0  0  0  0  0
   25.7930   19.7970   14.5490 C   0  0  0  0  0  0  0  0  0  0  0  0
   25.8310   20.5990   13.6190 O   0  0  0  0  0  0  0  0  0  0  0  0
   24.8790   17.2110   12.2750 C   0  0  0  0  0  0  0  0  0  0  0  0
   23.8340   16.7460   12.6860 O   0  0  0  0  0  0  0  0  0  0  0  0
   27.6880   16.4250    6.4080 C   0  0  0  0  0  0  0  0  0  0  0  0
   28.4920   14.0420    4.8300 C   0  0  0  0  0  0  0  0  0  0  0  0
   28.6400    9.9840    5.8720 C   0  0  0  0  0  0  0  0  0  0  0  0
   27.7510    9.8090    6.8280 N   0  0  0  0  0  0  0  0  0  0  0  0
   24.7464    9.1845    8.6779 H   0  0  0  0  0  0  0  0  0  0  0  0
   23.8606    9.4192    7.1330 H   0  0  0  0  0  0  0  0  0  0  0  0
   25.4708    8.6230    7.1330 H   0  0  0  0  0  0  0  0  0  0  0  0
   24.7976   11.4533    6.9841 H   0  0  0  0  0  0  0  0  0  0  0  0
   25.8572   11.0991    8.4169 H   0  0  0  0  0  0  0  0  0  0  0  0
   26.3943   12.1918    4.9313 H   0  0  0  0  0  0  0  0  0  0  0  0
   30.3088   13.8538    2.1254 H   0  0  0  0  0  0  0  0  0  0  0  0
   29.0094   17.8972    3.6142 H   0  0  0  0  0  0  0  0  0  0  0  0
   28.2479   19.9340    4.8350 H   0  0  0  0  0  0  0  0  0  0  0  0
   27.1354   19.7280    7.0483 H   0  0  0  0  0  0  0  0  0  0  0  0
   24.8987   16.3100    7.6490 H   0  0  0  0  0  0  0  0  0  0  0  0
   23.7536   16.0889    9.8681 H   0  0  0  0  0  0  0  0  0  0  0  0
   28.1281   18.5543    9.5058 H   0  0  0  0  0  0  0  0  0  0  0  0
   27.9108   18.0180   12.4334 H   0  0  0  0  0  0  0  0  0  0  0  0
   26.9979   19.4873   12.1815 H   0  0  0  0  0  0  0  0  0  0  0  0
   24.6462   17.9643   14.6270 H   0  0  0  0  0  0  0  0  0  0  0  0
   26.5403   16.4984   15.2512 H   0  0  0  0  0  0  0  0  0  0  0  0
   27.6685   17.8883   15.1071 H   0  0  0  0  0  0  0  0  0  0  0  0
   25.3021   17.6362   17.0294 H   0  0  0  0  0  0  0  0  0  0  0  0
   27.0611   17.5789   17.4455 H   0  0  0  0  0  0  0  0  0  0  0  0
   25.5480   21.1989   16.0391 H   0  0  0  0  0  0  0  0  0  0  0  0
   27.5333   15.4292    6.8489 H   0  0  0  0  0  0  0  0  0  0  0  0
   27.9105   13.6901    5.6949 H   0  0  0  0  0  0  0  0  0  0  0  0
   29.6025    9.4555    5.8064 H   0  0  0  0  0  0  0  0  0  0  0  0
  1  2  1  0
  2  3  1  0
  3  4  2  0
  4  5  1  0
  5  6  1  0
  6  7  2  0
  6  8  2  0
  6  9  1  0
  9 10  1  0
 10 11  2  0
 11 12  1  0
 12 13  1  0
 13 14  2  0
 14 15  1  0
 15 16  2  0
 16 17  1  0
 17 18  1  0
 18 19  2  0
 19 20  1  0
 20 21  2  0
 21 22  1  0
 22 23  2  0
 22 24  1  0
 24 25  1  0
 25 26  1  0
 26 27  1  0
 27 28  1  0
 28 29  1  0
 29 30  2  0
 29 31  1  0
 31 32  1  0
 32 33  2  0
 25 34  1  0
 34 35  2  0
 17 36  2  0
 12 37  1  0
  5 38  1  0
 38 39  2  0
 39  3  1  0
 37  9  2  0
 36 13  1  0
 23 18  1  0
 32 26  1  0
 34 21  1  0
  1 40  1  0
  1 41  1  0
  1 42  1  0
  2 43  1  0
  2 44  1  0
  4 45  1  0
 10 46  1  0
 14 47  1  0
 15 48  1  0
 16 49  1  0
 19 50  1  0
 20 51  1  0
 23 52  1  0
 24 53  1  0
 24 54  1  0
 26 55  1  1
 27 56  1  0
 27 57  1  0
 28 58  1  0
 28 59  1  0
 31 60  1  0
 36 61  1  0
 37 62  1  0
 38 63  1  0
M  END
>  <meeko>  (952) 
{"is_sidechain": [true], "free_energy": -11.08, "intermolecular_energy": 0.0, "internal_energy": -11.08, "cluster_size": 13, "cluster_id": 1, "rank_in_cluster": 1}

>  <_RMSD_MCS_to_ref>  (952) 
0.8951865106718749

$$$$
ligand
     RDKit          3D

 57 61  0  0  0  0  0  0  0  0999 V2000
   24.8540    9.4020    7.6050 C   0  0  0  0  0  0  0  0  0  0  0  0
   25.5230   10.7550    7.4270 C   0  0  0  0  0  0  0  0  0  0  0  0
   25.3080   11.3140    6.0640 C   0  0  0  0  0  0  0  0  0  0  0  0
   26.0290   12.2880    5.4000 C   0  0  0  0  0  0  0  0  0  0  0  0
   25.3750   12.4340    4.2100 N   0  0  0  0  0  0  0  0  0  0  0  0
   25.9310   13.3140    2.8830 S   0  0  0  0  0  6  0  0  0  0  0  0
   27.1780   12.6700    2.5140 O   0  0  0  0  0  0  0  0  0  0  0  0
   24.8000   13.3600    1.9750 O   0  0  0  0  0  0  0  0  0  0  0  0
   26.2390   14.8130    3.4430 O   0  0  0  0  0  0  0  0  0  0  0  0
   26.0940   15.1530    4.7620 C   0  0  0  0  0  0  0  0  0  0  0  0
   24.7790   15.1590    5.2300 C   0  0  0  0  0  0  0  0  0  0  0  0
   24.4990   15.4910    6.5590 C   0  0  0  0  0  0  0  0  0  0  0  0
   25.5280   15.8250    7.4520 C   0  0  0  0  0  0  0  0  0  0  0  0
   25.2380   16.1740    8.8530 C   0  0  0  0  0  0  0  0  0  0  0  0
   24.0130   15.7870    9.4570 C   0  0  0  0  0  0  0  0  0  0  0  0
   23.7060   16.1030   10.7890 C   0  0  0  0  0  0  0  0  0  0  0  0
   24.6360   16.8160   11.5180 C   0  0  0  0  0  0  0  0  0  0  0  0
   25.8380   17.2020   10.9290 C   0  0  0  0  0  0  0  0  0  0  0  0
   26.1650   16.8980    9.6190 C   0  0  0  0  0  0  0  0  0  0  0  0
   26.6260   17.9250   11.9310 C   0  0  0  0  0  0  0  0  0  0  0  0
   27.7570   18.3390   11.7680 O   0  0  0  0  0  0  0  0  0  0  0  0
   25.8500   17.9950   13.0770 N   0  0  0  0  0  0  0  0  0  0  0  0
   26.3830   18.4700   14.3510 C   0  0  2  0  0  0  0  0  0  0  0  0
   26.0070   17.5180   15.4870 C   0  0  0  0  0  0  0  0  0  0  0  0
   26.6810   17.9610   16.7750 C   0  0  0  0  0  0  0  0  0  0  0  0
   26.3290   19.3880   17.1130 C   0  0  0  0  0  0  0  0  0  0  0  0
   26.2290   19.7870   18.2690 O   0  0  0  0  0  0  0  0  0  0  0  0
   26.1510   20.2430   16.0540 N   0  0  0  0  0  0  0  0  0  0  0  0
   25.9740   19.9030   14.7320 C   0  0  0  0  0  0  0  0  0  0  0  0
   25.5420   20.7360   13.9380 O   0  0  0  0  0  0  0  0  0  0  0  0
   24.5850   17.2840   12.9360 C   0  0  0  0  0  0  0  0  0  0  0  0
   26.8450   15.8160    6.9640 C   0  0  0  0  0  0  0  0  0  0  0  0
   27.1280   15.4850    5.6330 C   0  0  0  0  0  0  0  0  0  0  0  0
   24.3680   11.5250    4.1410 C   0  0  0  0  0  0  0  0  0  0  0  0
   24.2840   10.8460    5.2650 N   0  0  0  0  0  0  0  0  0  0  0  0
   24.7464    9.1845    8.6779 H   0  0  0  0  0  0  0  0  0  0  0  0
   23.8606    9.4192    7.1330 H   0  0  0  0  0  0  0  0  0  0  0  0
   25.4708    8.6230    7.1330 H   0  0  0  0  0  0  0  0  0  0  0  0
   25.1079   11.4554    8.1666 H   0  0  0  0  0  0  0  0  0  0  0  0
   26.6052   10.6178    7.5687 H   0  0  0  0  0  0  0  0  0  0  0  0
   26.9243   12.8230    5.7497 H   0  0  0  0  0  0  0  0  0  0  0  0
   23.9560   14.9003    4.5475 H   0  0  0  0  0  0  0  0  0  0  0  0
   23.4564   15.4903    6.9095 H   0  0  0  0  0  0  0  0  0  0  0  0
   23.2811   15.2213    8.8617 H   0  0  0  0  0  0  0  0  0  0  0  0
   22.7519   15.7916   11.2392 H   0  0  0  0  0  0  0  0  0  0  0  0
   27.1265   17.2155    9.1892 H   0  0  0  0  0  0  0  0  0  0  0  0
   27.4729   18.4901   14.2040 H   0  0  0  0  0  0  0  0  0  0  0  0
   24.9156   17.5266   15.6244 H   0  0  0  0  0  0  0  0  0  0  0  0
   26.3410   16.5010   15.2338 H   0  0  0  0  0  0  0  0  0  0  0  0
   26.3519   17.3064   17.5955 H   0  0  0  0  0  0  0  0  0  0  0  0
   27.7704   17.8944   16.6383 H   0  0  0  0  0  0  0  0  0  0  0  0
   26.1497   21.2495   16.2726 H   0  0  0  0  0  0  0  0  0  0  0  0
   24.5257   16.4353   13.6332 H   0  0  0  0  0  0  0  0  0  0  0  0
   23.7050   17.9038   13.1628 H   0  0  0  0  0  0  0  0  0  0  0  0
   27.6719   16.0745    7.6418 H   0  0  0  0  0  0  0  0  0  0  0  0
   28.1683   15.4873    5.2754 H   0  0  0  0  0  0  0  0  0  0  0  0
   23.7147   11.3773    3.2684 H   0  0  0  0  0  0  0  0  0  0  0  0
  1  2  1  0
  2  3  1  0
  3  4  2  0
  4  5  1  0
  5  6  1  0
  6  7  2  0
  6  8  2  0
  6  9  1  0
  9 10  1  0
 10 11  2  0
 11 12  1  0
 12 13  2  0
 13 14  1  0
 14 15  2  0
 15 16  1  0
 16 17  2  0
 17 18  1  0
 18 19  2  0
 18 20  1  0
 20 21  2  0
 20 22  1  0
 22 23  1  0
 23 24  1  0
 24 25  1  0
 25 26  1  0
 26 27  2  0
 26 28  1  0
 28 29  1  0
 29 30  2  0
 22 31  1  0
 13 32  1  0
 32 33  2  0
  5 34  1  0
 34 35  2  0
 35  3  1  0
 33 10  1  0
 19 14  1  0
 29 23  1  0
 31 17  1  0
  1 36  1  0
  1 37  1  0
  1 38  1  0
  2 39  1  0
  2 40  1  0
  4 41  1  0
 11 42  1  0
 12 43  1  0
 15 44  1  0
 16 45  1  0
 19 46  1  0
 23 47  1  6
 24 48  1  0
 24 49  1  0
 25 50  1  0
 25 51  1  0
 28 52  1  0
 31 53  1  0
 31 54  1  0
 32 55  1  0
 33 56  1  0
 34 57  1  0
M  END
>  <meeko>  (953) 
{"is_sidechain": [true], "free_energy": -11.08, "intermolecular_energy": 0.0, "internal_energy": -11.08, "cluster_size": 11, "cluster_id": 1, "rank_in_cluster": 1}

>  <_RMSD_MCS_to_ref>  (953) 
1.0807411037493353

$$$$
ligand
     RDKit          3D

 53 57  0  0  0  0  0  0  0  0999 V2000
   24.8710    9.6160    7.7820 C   0  0  0  0  0  0  0  0  0  0  0  0
   25.4240   10.9650    7.3490 C   0  0  0  0  0  0  0  0  0  0  0  0
   26.6140   11.3670    8.1470 C   0  0  0  0  0  0  0  0  0  0  0  0
   27.8190   11.8820    7.7130 C   0  0  0  0  0  0  0  0  0  0  0  0
   28.5500   12.0330    8.8570 N   0  0  0  0  0  0  0  0  0  0  0  0
   30.0120   12.8600    8.9860 S   0  0  0  0  0  6  0  0  0  0  0  0
   30.2050   13.0630   10.4090 O   0  0  0  0  0  0  0  0  0  0  0  0
   30.9510   12.0890    8.1930 O   0  0  0  0  0  0  0  0  0  0  0  0
   29.7760   14.3050    8.2700 O   0  0  0  0  0  0  0  0  0  0  0  0
   29.0120   14.4530    7.1620 C   0  0  0  0  0  0  0  0  0  0  0  0
   29.3560   14.1910    5.8020 C   0  0  0  0  0  0  0  0  0  0  0  0
   28.4170   14.4350    4.8920 N   0  0  0  0  0  0  0  0  0  0  0  0
   27.0610   14.9870    5.6690 S   0  0  0  0  0  0  0  0  0  0  0  0
   27.7160   14.9270    7.2560 C   0  0  0  0  0  0  0  0  0  0  0  0
   26.9170   15.3120    8.4190 C   0  0  0  0  0  0  0  0  0  0  0  0
   25.6130   14.7830    8.5760 C   0  0  0  0  0  0  0  0  0  0  0  0
   24.8240   15.1180    9.6800 C   0  0  0  0  0  0  0  0  0  0  0  0
   25.3690   15.9800   10.6110 C   0  0  0  0  0  0  0  0  0  0  0  0
   26.6490   16.5140   10.4830 C   0  0  0  0  0  0  0  0  0  0  0  0
   27.4370   16.1890    9.3900 C   0  0  0  0  0  0  0  0  0  0  0  0
   26.9410   17.4200   11.6330 C   0  0  0  0  0  0  0  0  0  0  0  0
   25.7510   17.2730   12.4640 N   0  0  0  0  0  0  0  0  0  0  0  0
   25.4400   18.1510   13.5840 C   0  0  1  0  0  0  0  0  0  0  0  0
   26.0400   17.6600   14.8980 C   0  0  0  0  0  0  0  0  0  0  0  0
   25.5980   18.5760   16.0290 C   0  0  0  0  0  0  0  0  0  0  0  0
   25.9670   20.0140   15.7410 C   0  0  0  0  0  0  0  0  0  0  0  0
   26.3210   20.7900   16.6230 O   0  0  0  0  0  0  0  0  0  0  0  0
   25.8690   20.4230   14.4350 N   0  0  0  0  0  0  0  0  0  0  0  0
   25.9020   19.5980   13.3340 C   0  0  0  0  0  0  0  0  0  0  0  0
   26.2920   20.0250   12.2500 O   0  0  0  0  0  0  0  0  0  0  0  0
   24.7780   16.4980   11.8480 C   0  0  0  0  0  0  0  0  0  0  0  0
   23.6470   16.2710   12.2310 O   0  0  0  0  0  0  0  0  0  0  0  0
   27.7800   11.7000    9.9240 C   0  0  0  0  0  0  0  0  0  0  0  0
   26.6030   11.2660    9.5250 N   0  0  0  0  0  0  0  0  0  0  0  0
   24.8497    9.5640    8.8806 H   0  0  0  0  0  0  0  0  0  0  0  0
   23.8507    9.4948    7.3893 H   0  0  0  0  0  0  0  0  0  0  0  0
   25.5127    8.8135    7.3893 H   0  0  0  0  0  0  0  0  0  0  0  0
   25.7117   10.9062    6.2889 H   0  0  0  0  0  0  0  0  0  0  0  0
   24.6393   11.7190    7.5096 H   0  0  0  0  0  0  0  0  0  0  0  0
   28.1214   12.1170    6.6818 H   0  0  0  0  0  0  0  0  0  0  0  0
   30.3475   13.8067    5.5205 H   0  0  0  0  0  0  0  0  0  0  0  0
   25.2137   14.0960    7.8154 H   0  0  0  0  0  0  0  0  0  0  0  0
   23.8093   14.7112    9.8024 H   0  0  0  0  0  0  0  0  0  0  0  0
   28.4485   16.6079    9.2833 H   0  0  0  0  0  0  0  0  0  0  0  0
   27.8442   17.0986   12.1724 H   0  0  0  0  0  0  0  0  0  0  0  0
   27.1387   18.4594   11.3319 H   0  0  0  0  0  0  0  0  0  0  0  0
   24.3434   18.1324   13.6686 H   0  0  0  0  0  0  0  0  0  0  0  0
   25.6941   16.6354   15.0992 H   0  0  0  0  0  0  0  0  0  0  0  0
   27.1376   17.6682   14.8263 H   0  0  0  0  0  0  0  0  0  0  0  0
   24.5068   18.5016   16.1459 H   0  0  0  0  0  0  0  0  0  0  0  0
   26.1080   18.2626   16.9519 H   0  0  0  0  0  0  0  0  0  0  0  0
   25.7616   21.4330   14.2641 H   0  0  0  0  0  0  0  0  0  0  0  0
   28.0953   11.7814   10.9747 H   0  0  0  0  0  0  0  0  0  0  0  0
  1  2  1  0
  2  3  1  0
  3  4  2  0
  4  5  1  0
  5  6  1  0
  6  7  2  0
  6  8  2  0
  6  9  1  0
  9 10  1  0
 10 11  1  0
 11 12  2  0
 12 13  1  0
 13 14  1  0
 14 15  1  0
 15 16  2  0
 16 17  1  0
 17 18  2  0
 18 19  1  0
 19 20  2  0
 19 21  1  0
 21 22  1  0
 22 23  1  0
 23 24  1  0
 24 25  1  0
 25 26  1  0
 26 27  2  0
 26 28  1  0
 28 29  1  0
 29 30  2  0
 22 31  1  0
 31 32  2  0
  5 33  1  0
 33 34  2  0
 34  3  1  0
 14 10  2  0
 20 15  1  0
 29 23  1  0
 31 18  1  0
  1 35  1  0
  1 36  1  0
  1 37  1  0
  2 38  1  0
  2 39  1  0
  4 40  1  0
 11 41  1  0
 16 42  1  0
 17 43  1  0
 20 44  1  0
 21 45  1  0
 21 46  1  0
 23 47  1  1
 24 48  1  0
 24 49  1  0
 25 50  1  0
 25 51  1  0
 28 52  1  0
 33 53  1  0
M  END
>  <meeko>  (954) 
{"is_sidechain": [true], "free_energy": -11.08, "intermolecular_energy": 0.0, "internal_energy": -11.08, "cluster_size": 12, "cluster_id": 1, "rank_in_cluster": 1}

>  <_RMSD_MCS_to_ref>  (954) 
1.513018401808295

$$$$
ligand
     RDKit          3D

 52 55  0  0  0  0  0  0  0  0999 V2000
   24.8710    9.6160    7.7820 C   0  0  0  0  0  0  0  0  0  0  0  0
   25.4240   10.9650    7.3490 C   0  0  0  0  0  0  0  0  0  0  0  0
   26.7670   11.2350    7.9340 C   0  0  0  0  0  0  0  0  0  0  0  0
   27.0860   11.8260    9.1400 C   0  0  0  0  0  0  0  0  0  0  0  0
   28.4500   11.7890    9.1810 N   0  0  0  0  0  0  0  0  0  0  0  0
   29.4250   12.5860   10.3010 S   0  0  0  0  0  6  0  0  0  0  0  0
   30.7830   12.3120    9.8700 O   0  0  0  0  0  0  0  0  0  0  0  0
   28.9400   12.1400   11.5940 O   0  0  0  0  0  0  0  0  0  0  0  0
   29.1020   14.1750   10.1240 O   0  0  0  0  0  0  0  0  0  0  0  0
   27.8380   14.6510    9.8920 C   0  0  0  0  0  0  0  0  0  0  0  0
   27.3610   14.4730    8.5970 C   0  0  0  0  0  0  0  0  0  0  0  0
   26.0830   14.9130    8.2510 C   0  0  0  0  0  0  0  0  0  0  0  0
   25.2610   15.5540    9.1900 C   0  0  0  0  0  0  0  0  0  0  0  0
   23.9700   15.9760    8.8300 C   0  0  0  0  0  0  0  0  0  0  0  0
   23.1320   16.6040    9.7520 C   0  0  0  0  0  0  0  0  0  0  0  0
   23.5840   16.8380   11.0460 C   0  0  0  0  0  0  0  0  0  0  0  0
   24.8780   16.4470   11.4150 C   0  0  0  0  0  0  0  0  0  0  0  0
   25.2990   16.8010   12.7930 C   0  0  0  0  0  0  0  0  0  0  0  0
   25.8950   15.9920   13.4930 O   0  0  0  0  0  0  0  0  0  0  0  0
   24.9300   18.0560   13.2130 N   0  0  0  0  0  0  0  0  0  0  0  0
   25.2240   18.5410   14.5520 C   0  0  1  0  0  0  0  0  0  0  0  0
   26.3980   17.7940   15.1770 C   0  0  0  0  0  0  0  0  0  0  0  0
   26.6920   18.3680   16.5530 C   0  0  0  0  0  0  0  0  0  0  0  0
   26.9480   19.8550   16.4830 C   0  0  0  0  0  0  0  0  0  0  0  0
   27.7320   20.4250   17.2370 O   0  0  0  0  0  0  0  0  0  0  0  0
   26.2280   20.5590   15.5510 N   0  0  0  0  0  0  0  0  0  0  0  0
   25.5640   20.0330   14.4710 C   0  0  0  0  0  0  0  0  0  0  0  0
   25.2500   20.7400   13.5140 O   0  0  0  0  0  0  0  0  0  0  0  0
   25.7350   15.7690   10.5070 C   0  0  0  0  0  0  0  0  0  0  0  0
   27.0230   15.2730   10.8380 C   0  0  0  0  0  0  0  0  0  0  0  0
   28.9150   11.2760    8.0120 C   0  0  0  0  0  0  0  0  0  0  0  0
   27.9150   10.9040    7.2410 N   0  0  0  0  0  0  0  0  0  0  0  0
   24.8497    9.5640    8.8806 H   0  0  0  0  0  0  0  0  0  0  0  0
   23.8507    9.4948    7.3893 H   0  0  0  0  0  0  0  0  0  0  0  0
   25.5127    8.8135    7.3893 H   0  0  0  0  0  0  0  0  0  0  0  0
   25.5057   10.9791    6.2521 H   0  0  0  0  0  0  0  0  0  0  0  0
   24.7356   11.7440    7.7085 H   0  0  0  0  0  0  0  0  0  0  0  0
   26.3982   12.2337    9.8955 H   0  0  0  0  0  0  0  0  0  0  0  0
   27.9943   13.9832    7.8427 H   0  0  0  0  0  0  0  0  0  0  0  0
   25.7144   14.7550    7.2267 H   0  0  0  0  0  0  0  0  0  0  0  0
   23.6136   15.8083    7.8029 H   0  0  0  0  0  0  0  0  0  0  0  0
   22.1183   16.9126    9.4566 H   0  0  0  0  0  0  0  0  0  0  0  0
   22.9269   17.3292   11.7787 H   0  0  0  0  0  0  0  0  0  0  0  0
   24.4289   18.6733   12.5582 H   0  0  0  0  0  0  0  0  0  0  0  0
   24.3395   18.3725   15.1839 H   0  0  0  0  0  0  0  0  0  0  0  0
   26.1451   16.7276   15.2714 H   0  0  0  0  0  0  0  0  0  0  0  0
   27.2854   17.9063   14.5367 H   0  0  0  0  0  0  0  0  0  0  0  0
   25.8295   18.1832   17.2103 H   0  0  0  0  0  0  0  0  0  0  0  0
   27.5940   17.8782   16.9485 H   0  0  0  0  0  0  0  0  0  0  0  0
   26.1813   21.5806   15.6736 H   0  0  0  0  0  0  0  0  0  0  0  0
   27.3889   15.3821   11.8696 H   0  0  0  0  0  0  0  0  0  0  0  0
   29.9786   11.1843    7.7468 H   0  0  0  0  0  0  0  0  0  0  0  0
  1  2  1  0
  2  3  1  0
  3  4  2  0
  4  5  1  0
  5  6  1  0
  6  7  2  0
  6  8  2  0
  6  9  1  0
  9 10  1  0
 10 11  2  0
 11 12  1  0
 12 13  2  0
 13 14  1  0
 14 15  2  0
 15 16  1  0
 16 17  2  0
 17 18  1  0
 18 19  2  0
 18 20  1  0
 20 21  1  0
 21 22  1  0
 22 23  1  0
 23 24  1  0
 24 25  2  0
 24 26  1  0
 26 27  1  0
 27 28  2  0
 17 29  1  0
 29 30  2  0
  5 31  1  0
 31 32  2  0
 32  3  1  0
 30 10  1  0
 29 13  1  0
 27 21  1  0
  1 33  1  0
  1 34  1  0
  1 35  1  0
  2 36  1  0
  2 37  1  0
  4 38  1  0
 11 39  1  0
 12 40  1  0
 14 41  1  0
 15 42  1  0
 16 43  1  0
 20 44  1  0
 21 45  1  1
 22 46  1  0
 22 47  1  0
 23 48  1  0
 23 49  1  0
 26 50  1  0
 30 51  1  0
 31 52  1  0
M  END
>  <meeko>  (955) 
{"is_sidechain": [true], "free_energy": -11.08, "intermolecular_energy": 0.0, "internal_energy": -11.08, "cluster_size": 3, "cluster_id": 1, "rank_in_cluster": 1}

>  <_RMSD_MCS_to_ref>  (955) 
0.6649609011062233

$$$$
ligand
     RDKit          3D

 56 60  0  0  0  0  0  0  0  0999 V2000
   24.8540    9.4020    7.6050 C   0  0  0  0  0  0  0  0  0  0  0  0
   25.5230   10.7550    7.4270 C   0  0  0  0  0  0  0  0  0  0  0  0
   27.0050   10.6410    7.3390 C   0  0  0  0  0  0  0  0  0  0  0  0
   27.9360   11.6450    7.1620 C   0  0  0  0  0  0  0  0  0  0  0  0
   29.1370   11.0000    7.2100 N   0  0  0  0  0  0  0  0  0  0  0  0
   30.6430   11.6810    6.9070 S   0  0  0  0  0  6  0  0  0  0  0  0
   31.5660   10.5690    6.7900 O   0  0  0  0  0  0  0  0  0  0  0  0
   30.4310   12.6180    5.8220 O   0  0  0  0  0  0  0  0  0  0  0  0
   31.0100   12.5630    8.3960 C   0  0  0  0  0  0  0  0  0  0  0  0
   31.8810   11.9750    9.3280 C   0  0  0  0  0  0  0  0  0  0  0  0
   32.2150   12.6540   10.5090 C   0  0  0  0  0  0  0  0  0  0  0  0
   31.6930   13.9220   10.7650 C   0  0  0  0  0  0  0  0  0  0  0  0
   30.8410   14.4760    9.8300 C   0  0  0  0  0  0  0  0  0  0  0  0
   30.4920   13.8230    8.6560 C   0  0  0  0  0  0  0  0  0  0  0  0
   29.6250   14.7250    7.8550 C   0  0  0  0  0  0  0  0  0  0  0  0
   29.3040   15.8070    8.8980 C   0  0  1  0  0  0  0  0  0  0  0  0
   27.9330   15.6630    9.5230 C   0  0  0  0  0  0  0  0  0  0  0  0
   27.4730   16.3620   10.5450 N   0  0  0  0  0  0  0  0  0  0  0  0
   26.1570   15.9740   10.8350 C   0  0  0  0  0  0  0  0  0  0  0  0
   25.3840   16.6060   11.9090 C   0  0  0  0  0  0  0  0  0  0  0  0
   24.1880   16.8600   11.8150 O   0  0  0  0  0  0  0  0  0  0  0  0
   26.1400   16.8810   13.0290 N   0  0  0  0  0  0  0  0  0  0  0  0
   25.6760   17.8300   14.0260 C   0  0  1  0  0  0  0  0  0  0  0  0
   26.0550   17.3790   15.4290 C   0  0  0  0  0  0  0  0  0  0  0  0
   25.6270   18.4260   16.4440 C   0  0  0  0  0  0  0  0  0  0  0  0
   26.1760   19.7900   16.1030 C   0  0  0  0  0  0  0  0  0  0  0  0
   26.5030   20.6040   16.9620 O   0  0  0  0  0  0  0  0  0  0  0  0
   26.2480   20.1080   14.7720 N   0  0  0  0  0  0  0  0  0  0  0  0
   26.2800   19.2110   13.7320 C   0  0  0  0  0  0  0  0  0  0  0  0
   26.7350   19.5390   12.6370 O   0  0  0  0  0  0  0  0  0  0  0  0
   25.6640   14.9680   10.0280 C   0  0  0  0  0  0  0  0  0  0  0  0
   26.8430   14.4870    8.8890 S   0  0  0  0  0  0  0  0  0  0  0  0
   30.2830   15.7190    9.9680 O   0  0  0  0  0  0  0  0  0  0  0  0
   28.9210    9.6660    7.3480 C   0  0  0  0  0  0  0  0  0  0  0  0
   27.6320    9.4110    7.4320 N   0  0  0  0  0  0  0  0  0  0  0  0
   24.7464    9.1845    8.6779 H   0  0  0  0  0  0  0  0  0  0  0  0
   23.8606    9.4192    7.1330 H   0  0  0  0  0  0  0  0  0  0  0  0
   25.4708    8.6230    7.1330 H   0  0  0  0  0  0  0  0  0  0  0  0
   25.1475   11.2172    6.5021 H   0  0  0  0  0  0  0  0  0  0  0  0
   25.2827   11.3696    8.3071 H   0  0  0  0  0  0  0  0  0  0  0  0
   27.7515   12.7195    7.0157 H   0  0  0  0  0  0  0  0  0  0  0  0
   32.3027   10.9783    9.1309 H   0  0  0  0  0  0  0  0  0  0  0  0
   32.8923   12.1840   11.2373 H   0  0  0  0  0  0  0  0  0  0  0  0
   31.9527   14.4652   11.6856 H   0  0  0  0  0  0  0  0  0  0  0  0
   30.1621   15.1416    6.9902 H   0  0  0  0  0  0  0  0  0  0  0  0
   28.7426   14.2387    7.4136 H   0  0  0  0  0  0  0  0  0  0  0  0
   29.3299   16.7716    8.3700 H   0  0  0  0  0  0  0  0  0  0  0  0
   27.0452   16.4074   13.1603 H   0  0  0  0  0  0  0  0  0  0  0  0
   24.5787   17.8876   13.9756 H   0  0  0  0  0  0  0  0  0  0  0  0
   25.5525   16.4267   15.6538 H   0  0  0  0  0  0  0  0  0  0  0  0
   27.1457   17.2470   15.4839 H   0  0  0  0  0  0  0  0  0  0  0  0
   24.5284   18.4778   16.4613 H   0  0  0  0  0  0  0  0  0  0  0  0
   26.0228   18.1327   17.4275 H   0  0  0  0  0  0  0  0  0  0  0  0
   26.2811   21.1086   14.5298 H   0  0  0  0  0  0  0  0  0  0  0  0
   24.6550   14.5372   10.1072 H   0  0  0  0  0  0  0  0  0  0  0  0
   29.7135    8.9040    7.3845 H   0  0  0  0  0  0  0  0  0  0  0  0
  1  2  1  0
  2  3  1  0
  3  4  2  0
  4  5  1  0
  5  6  1  0
  6  7  2  0
  6  8  2  0
  6  9  1  0
  9 10  2  0
 10 11  1  0
 11 12  2  0
 12 13  1  0
 13 14  2  0
 14 15  1  0
 15 16  1  0
 16 17  1  0
 17 18  2  0
 18 19  1  0
 19 20  1  0
 20 21  2  0
 20 22  1  0
 22 23  1  0
 23 24  1  0
 24 25  1  0
 25 26  1  0
 26 27  2  0
 26 28  1  0
 28 29  1  0
 29 30  2  0
 19 31  2  0
 31 32  1  0
 16 33  1  0
  5 34  1  0
 34 35  2  0
 35  3  1  0
 14  9  1  0
 32 17  1  0
 33 13  1  0
 29 23  1  0
  1 36  1  0
  1 37  1  0
  1 38  1  0
  2 39  1  0
  2 40  1  0
  4 41  1  0
 10 42  1  0
 11 43  1  0
 12 44  1  0
 15 45  1  0
 15 46  1  0
 16 47  1  6
 22 48  1  0
 23 49  1  1
 24 50  1  0
 24 51  1  0
 25 52  1  0
 25 53  1  0
 28 54  1  0
 31 55  1  0
 34 56  1  0
M  END
>  <meeko>  (956) 
{"is_sidechain": [true], "free_energy": -11.07, "intermolecular_energy": 0.0, "internal_energy": -11.07, "cluster_size": 17, "cluster_id": 1, "rank_in_cluster": 1}

>  <_RMSD_MCS_to_ref>  (956) 
1.336282280558016

$$$$
ligand
     RDKit          3D

 56 60  0  0  0  0  0  0  0  0999 V2000
   24.8540    9.4020    7.6050 C   0  0  0  0  0  0  0  0  0  0  0  0
   25.5230   10.7550    7.4270 C   0  0  0  0  0  0  0  0  0  0  0  0
   25.0220   11.4760    6.2250 C   0  0  0  0  0  0  0  0  0  0  0  0
   25.2940   12.7650    5.8100 C   0  0  0  0  0  0  0  0  0  0  0  0
   24.5600   12.9090    4.6660 N   0  0  0  0  0  0  0  0  0  0  0  0
   24.5780   14.2520    3.6570 S   0  0  0  0  0  6  0  0  0  0  0  0
   23.2890   14.8830    3.8760 O   0  0  0  0  0  0  0  0  0  0  0  0
   24.9910   13.7850    2.3480 O   0  0  0  0  0  0  0  0  0  0  0  0
   25.8230   15.3180    4.2940 C   0  0  0  0  0  0  0  0  0  0  0  0
   26.9880   15.5500    3.5490 C   0  0  0  0  0  0  0  0  0  0  0  0
   27.9870   16.4010    4.0490 C   0  0  0  0  0  0  0  0  0  0  0  0
   27.8360   17.0190    5.2930 C   0  0  0  0  0  0  0  0  0  0  0  0
   26.6770   16.7780    6.0120 C   0  0  0  0  0  0  0  0  0  0  0  0
   25.6850   15.9410    5.5180 C   0  0  0  0  0  0  0  0  0  0  0  0
   24.6270   15.8010    6.3740 O   0  0  0  0  0  0  0  0  0  0  0  0
   24.8330   16.8320    7.3810 C   0  0  1  0  0  0  0  0  0  0  0  0
   24.3820   16.3240    8.7240 C   0  0  0  0  0  0  0  0  0  0  0  0
   24.7740   16.8490    9.8690 N   0  0  0  0  0  0  0  0  0  0  0  0
   24.1910   16.1650   10.9410 C   0  0  0  0  0  0  0  0  0  0  0  0
   24.4490   16.5590   12.3280 C   0  0  0  0  0  0  0  0  0  0  0  0
   23.8380   16.1020   13.2880 O   0  0  0  0  0  0  0  0  0  0  0  0
   25.4560   17.4860   12.4430 N   0  0  0  0  0  0  0  0  0  0  0  0
   25.9860   17.9120   13.7230 C   0  0  2  0  0  0  0  0  0  0  0  0
   24.8790   18.3130   14.6940 C   0  0  0  0  0  0  0  0  0  0  0  0
   25.4950   18.7710   16.0060 C   0  0  0  0  0  0  0  0  0  0  0  0
   26.4840   19.8910   15.7880 C   0  0  0  0  0  0  0  0  0  0  0  0
   26.6610   20.7840   16.6110 O   0  0  0  0  0  0  0  0  0  0  0  0
   27.2120   19.8510   14.6260 N   0  0  0  0  0  0  0  0  0  0  0  0
   26.9210   19.1060   13.5080 C   0  0  0  0  0  0  0  0  0  0  0  0
   27.4110   19.3890   12.4150 O   0  0  0  0  0  0  0  0  0  0  0  0
   23.3810   15.1100   10.5720 C   0  0  0  0  0  0  0  0  0  0  0  0
   23.3320   14.9640    8.8680 S   0  0  0  0  0  0  0  0  0  0  0  0
   26.3070   17.2510    7.3680 C   0  0  0  0  0  0  0  0  0  0  0  0
   23.9020   11.7500    4.4090 C   0  0  0  0  0  0  0  0  0  0  0  0
   24.1630   10.8540    5.3410 N   0  0  0  0  0  0  0  0  0  0  0  0
   24.7464    9.1845    8.6779 H   0  0  0  0  0  0  0  0  0  0  0  0
   23.8606    9.4192    7.1330 H   0  0  0  0  0  0  0  0  0  0  0  0
   25.4708    8.6230    7.1330 H   0  0  0  0  0  0  0  0  0  0  0  0
   25.3229   11.3690    8.3175 H   0  0  0  0  0  0  0  0  0  0  0  0
   26.6013   10.5836    7.2930 H   0  0  0  0  0  0  0  0  0  0  0  0
   25.9506   13.5056    6.2900 H   0  0  0  0  0  0  0  0  0  0  0  0
   27.1197   15.0644    2.5708 H   0  0  0  0  0  0  0  0  0  0  0  0
   28.8958   16.5825    3.4564 H   0  0  0  0  0  0  0  0  0  0  0  0
   28.6188   17.6810    5.6917 H   0  0  0  0  0  0  0  0  0  0  0  0
   24.2308   17.7253    7.1587 H   0  0  0  0  0  0  0  0  0  0  0  0
   25.8508   17.8953   11.5842 H   0  0  0  0  0  0  0  0  0  0  0  0
   26.5310   17.0634   14.1621 H   0  0  0  0  0  0  0  0  0  0  0  0
   24.2901   19.1342   14.2594 H   0  0  0  0  0  0  0  0  0  0  0  0
   24.2239   17.4490   14.8792 H   0  0  0  0  0  0  0  0  0  0  0  0
   24.6950   19.1246   16.6730 H   0  0  0  0  0  0  0  0  0  0  0  0
   26.0286   17.9198   16.4541 H   0  0  0  0  0  0  0  0  0  0  0  0
   28.0589   20.4360   14.5875 H   0  0  0  0  0  0  0  0  0  0  0  0
   22.8432   14.4558   11.2740 H   0  0  0  0  0  0  0  0  0  0  0  0
   26.4262   18.3397    7.4708 H   0  0  0  0  0  0  0  0  0  0  0  0
   26.9179   16.8491    8.1897 H   0  0  0  0  0  0  0  0  0  0  0  0
   23.2432   11.5816    3.5444 H   0  0  0  0  0  0  0  0  0  0  0  0
  1  2  1  0
  2  3  1  0
  3  4  2  0
  4  5  1  0
  5  6  1  0
  6  7  2  0
  6  8  2  0
  6  9  1  0
  9 10  2  0
 10 11  1  0
 11 12  2  0
 12 13  1  0
 13 14  2  0
 14 15  1  0
 15 16  1  0
 16 17  1  0
 17 18  2  0
 18 19  1  0
 19 20  1  0
 20 21  2  0
 20 22  1  0
 22 23  1  0
 23 24  1  0
 24 25  1  0
 25 26  1  0
 26 27  2  0
 26 28  1  0
 28 29  1  0
 29 30  2  0
 19 31  2  0
 31 32  1  0
 16 33  1  0
  5 34  1  0
 34 35  2  0
 35  3  1  0
 14  9  1  0
 32 17  1  0
 33 13  1  0
 29 23  1  0
  1 36  1  0
  1 37  1  0
  1 38  1  0
  2 39  1  0
  2 40  1  0
  4 41  1  0
 10 42  1  0
 11 43  1  0
 12 44  1  0
 16 45  1  6
 22 46  1  0
 23 47  1  1
 24 48  1  0
 24 49  1  0
 25 50  1  0
 25 51  1  0
 28 52  1  0
 31 53  1  0
 33 54  1  0
 33 55  1  0
 34 56  1  0
M  END
>  <meeko>  (957) 
{"is_sidechain": [true], "free_energy": -11.07, "intermolecular_energy": 0.0, "internal_energy": -11.07, "cluster_size": 14, "cluster_id": 2, "rank_in_cluster": 1}

>  <_RMSD_MCS_to_ref>  (957) 
1.746754355305226

$$$$
ligand
     RDKit          3D

 59 64  0  0  0  0  0  0  0  0999 V2000
   24.8540    9.4020    7.6050 C   0  0  0  0  0  0  0  0  0  0  0  0
   25.5230   10.7550    7.4270 C   0  0  0  0  0  0  0  0  0  0  0  0
   27.0080   10.6910    7.5390 C   0  0  0  0  0  0  0  0  0  0  0  0
   27.9240   11.7200    7.4340 C   0  0  0  0  0  0  0  0  0  0  0  0
   29.1350   11.1110    7.6000 N   0  0  0  0  0  0  0  0  0  0  0  0
   30.6410   11.8280    7.4140 S   0  0  0  0  0  6  0  0  0  0  0  0
   31.0260   12.2830    8.7370 O   0  0  0  0  0  0  0  0  0  0  0  0
   31.4340   10.8770    6.6590 O   0  0  0  0  0  0  0  0  0  0  0  0
   30.3710   13.2380    6.4030 C   0  0  0  0  0  0  0  0  0  0  0  0
   31.0940   13.3860    5.2480 C   0  0  0  0  0  0  0  0  0  0  0  0
   30.9170   14.4660    4.4540 N   0  0  0  0  0  0  0  0  0  0  0  0
   30.0130   15.3880    4.8510 C   0  0  0  0  0  0  0  0  0  0  0  0
   29.8410   16.5080    4.0620 C   0  0  0  0  0  0  0  0  0  0  0  0
   28.9420   17.4760    4.4520 C   0  0  0  0  0  0  0  0  0  0  0  0
   28.2120   17.3870    5.5740 N   0  0  0  0  0  0  0  0  0  0  0  0
   28.3680   16.2740    6.3480 C   0  0  0  0  0  0  0  0  0  0  0  0
   27.5210   16.2700    7.5610 C   0  0  0  0  0  0  0  0  0  0  0  0
   26.4550   15.3370    7.6750 C   0  0  0  0  0  0  0  0  0  0  0  0
   25.6260   15.2980    8.8000 C   0  0  0  0  0  0  0  0  0  0  0  0
   25.8890   16.1980    9.8100 C   0  0  0  0  0  0  0  0  0  0  0  0
   26.9360   17.1120    9.7470 C   0  0  0  0  0  0  0  0  0  0  0  0
   27.7580   17.1590    8.6310 C   0  0  0  0  0  0  0  0  0  0  0  0
   26.9880   17.9120   11.0050 C   0  0  0  0  0  0  0  0  0  0  0  0
   25.7950   17.4670   11.7140 N   0  0  0  0  0  0  0  0  0  0  0  0
   25.5330   17.8850   13.0850 C   0  0  1  0  0  0  0  0  0  0  0  0
   26.3010   17.0770   14.1300 C   0  0  0  0  0  0  0  0  0  0  0  0
   25.9070   17.5500   15.5200 C   0  0  0  0  0  0  0  0  0  0  0  0
   26.1540   19.0310   15.6840 C   0  0  0  0  0  0  0  0  0  0  0  0
   26.3180   19.5490   16.7860 O   0  0  0  0  0  0  0  0  0  0  0  0
   26.1050   19.7950   14.5450 N   0  0  0  0  0  0  0  0  0  0  0  0
   25.7930   19.3880   13.2680 C   0  0  0  0  0  0  0  0  0  0  0  0
   25.6370   20.2210   12.3750 O   0  0  0  0  0  0  0  0  0  0  0  0
   25.1900   16.3900   11.0860 C   0  0  0  0  0  0  0  0  0  0  0  0
   24.2630   15.7090   11.4760 O   0  0  0  0  0  0  0  0  0  0  0  0
   29.2620   15.2340    6.0430 C   0  0  0  0  0  0  0  0  0  0  0  0
   29.4460   14.1310    6.8270 N   0  0  0  0  0  0  0  0  0  0  0  0
   28.9440    9.7760    7.7620 C   0  0  0  0  0  0  0  0  0  0  0  0
   27.6590    9.4870    7.7390 N   0  0  0  0  0  0  0  0  0  0  0  0
   24.7464    9.1845    8.6779 H   0  0  0  0  0  0  0  0  0  0  0  0
   23.8606    9.4192    7.1330 H   0  0  0  0  0  0  0  0  0  0  0  0
   25.4708    8.6230    7.1330 H   0  0  0  0  0  0  0  0  0  0  0  0
   25.2633   11.1461    6.4322 H   0  0  0  0  0  0  0  0  0  0  0  0
   25.1606   11.4093    8.2336 H   0  0  0  0  0  0  0  0  0  0  0  0
   27.7235   12.7870    7.2570 H   0  0  0  0  0  0  0  0  0  0  0  0
   31.8271   12.6168    4.9636 H   0  0  0  0  0  0  0  0  0  0  0  0
   30.4159   16.6260    3.1317 H   0  0  0  0  0  0  0  0  0  0  0  0
   28.8168   18.3632    3.8138 H   0  0  0  0  0  0  0  0  0  0  0  0
   26.2772   14.6256    6.8550 H   0  0  0  0  0  0  0  0  0  0  0  0
   24.7976   14.5783    8.8759 H   0  0  0  0  0  0  0  0  0  0  0  0
   28.5859   17.8815    8.5804 H   0  0  0  0  0  0  0  0  0  0  0  0
   27.8985   17.6885   11.5804 H   0  0  0  0  0  0  0  0  0  0  0  0
   27.0148   18.9980   10.8322 H   0  0  0  0  0  0  0  0  0  0  0  0
   24.4659   17.6812   13.2578 H   0  0  0  0  0  0  0  0  0  0  0  0
   26.0565   16.0100   14.0219 H   0  0  0  0  0  0  0  0  0  0  0  0
   27.3820   17.2199   13.9848 H   0  0  0  0  0  0  0  0  0  0  0  0
   24.8381   17.3448   15.6791 H   0  0  0  0  0  0  0  0  0  0  0  0
   26.5197   17.0111   16.2577 H   0  0  0  0  0  0  0  0  0  0  0  0
   26.3288   20.7938   14.6598 H   0  0  0  0  0  0  0  0  0  0  0  0
   29.7499    9.0390    7.8940 H   0  0  0  0  0  0  0  0  0  0  0  0
  1  2  1  0
  2  3  1  0
  3  4  2  0
  4  5  1  0
  5  6  1  0
  6  7  2  0
  6  8  2  0
  6  9  1  0
  9 10  2  0
 10 11  1  0
 11 12  2  0
 12 13  1  0
 13 14  2  0
 14 15  1  0
 15 16  2  0
 16 17  1  0
 17 18  2  0
 18 19  1  0
 19 20  2  0
 20 21  1  0
 21 22  2  0
 21 23  1  0
 23 24  1  0
 24 25  1  0
 25 26  1  0
 26 27  1  0
 27 28  1  0
 28 29  2  0
 28 30  1  0
 30 31  1  0
 31 32  2  0
 24 33  1  0
 33 34  2  0
 16 35  1  0
 35 36  2  0
  5 37  1  0
 37 38  2  0
 38  3  1  0
 36  9  1  0
 35 12  1  0
 22 17  1  0
 31 25  1  0
 33 20  1  0
  1 39  1  0
  1 40  1  0
  1 41  1  0
  2 42  1  0
  2 43  1  0
  4 44  1  0
 10 45  1  0
 13 46  1  0
 14 47  1  0
 18 48  1  0
 19 49  1  0
 22 50  1  0
 23 51  1  0
 23 52  1  0
 25 53  1  1
 26 54  1  0
 26 55  1  0
 27 56  1  0
 27 57  1  0
 30 58  1  0
 37 59  1  0
M  END
>  <meeko>  (958) 
{"is_sidechain": [true], "free_energy": -11.07, "intermolecular_energy": 0.0, "internal_energy": -11.07, "cluster_size": 16, "cluster_id": 1, "rank_in_cluster": 1}

>  <_RMSD_MCS_to_ref>  (958) 
1.6058912374960714

$$$$
ligand
     RDKit          3D

 55 59  0  0  0  0  0  0  0  0999 V2000
   24.8710    9.6160    7.7820 C   0  0  0  0  0  0  0  0  0  0  0  0
   25.4240   10.9650    7.3490 C   0  0  0  0  0  0  0  0  0  0  0  0
   26.8960   11.0570    7.5440 C   0  0  0  0  0  0  0  0  0  0  0  0
   27.6960   12.1810    7.6010 C   0  0  0  0  0  0  0  0  0  0  0  0
   28.9550   11.6840    7.7920 N   0  0  0  0  0  0  0  0  0  0  0  0
   30.3520   12.6070    7.9830 S   0  0  0  0  0  6  0  0  0  0  0  0
   30.4390   13.3410    6.7310 O   0  0  0  0  0  0  0  0  0  0  0  0
   31.4050   11.6790    8.3580 O   0  0  0  0  0  0  0  0  0  0  0  0
   30.1160   13.6910    9.1630 O   0  0  0  0  0  0  0  0  0  0  0  0
   28.8430   14.0740    9.4750 C   0  0  0  0  0  0  0  0  0  0  0  0
   28.3230   15.1760    8.9230 N   0  0  0  0  0  0  0  0  0  0  0  0
   27.0760   15.5140    9.3200 C   0  0  0  0  0  0  0  0  0  0  0  0
   26.3350   14.8030   10.2470 C   0  0  0  0  0  0  0  0  0  0  0  0
   24.9850   15.1880   10.6450 C   0  0  0  0  0  0  0  0  0  0  0  0
   23.8660   14.8040    9.8760 C   0  0  0  0  0  0  0  0  0  0  0  0
   22.5540   15.1710   10.2370 C   0  0  0  0  0  0  0  0  0  0  0  0
   22.3220   15.9310   11.3800 C   0  0  0  0  0  0  0  0  0  0  0  0
   23.4220   16.2950   12.1320 C   0  0  0  0  0  0  0  0  0  0  0  0
   24.7300   15.9420   11.7900 C   0  0  0  0  0  0  0  0  0  0  0  0
   25.6760   16.4910   12.8120 C   0  0  0  0  0  0  0  0  0  0  0  0
   24.7840   17.1080   13.7840 N   0  0  0  0  0  0  0  0  0  0  0  0
   25.2420   18.0150   14.8310 C   0  0  1  0  0  0  0  0  0  0  0  0
   26.3400   17.4040   15.6950 C   0  0  0  0  0  0  0  0  0  0  0  0
   26.6990   18.3720   16.8120 C   0  0  0  0  0  0  0  0  0  0  0  0
   27.0950   19.7220   16.2610 C   0  0  0  0  0  0  0  0  0  0  0  0
   27.9690   20.4120   16.7760 O   0  0  0  0  0  0  0  0  0  0  0  0
   26.4140   20.1560   15.1520 N   0  0  0  0  0  0  0  0  0  0  0  0
   25.7450   19.3510   14.2580 C   0  0  0  0  0  0  0  0  0  0  0  0
   25.5970   19.7060   13.0910 O   0  0  0  0  0  0  0  0  0  0  0  0
   23.4620   17.0790   13.3700 C   0  0  0  0  0  0  0  0  0  0  0  0
   22.4980   17.5950   13.9010 O   0  0  0  0  0  0  0  0  0  0  0  0
   26.9930   13.7010   10.7620 C   0  0  0  0  0  0  0  0  0  0  0  0
   28.2360   13.3180   10.3980 N   0  0  0  0  0  0  0  0  0  0  0  0
   28.8990   10.3290    7.8430 C   0  0  0  0  0  0  0  0  0  0  0  0
   27.6560    9.9130    7.6990 N   0  0  0  0  0  0  0  0  0  0  0  0
   24.8497    9.5640    8.8806 H   0  0  0  0  0  0  0  0  0  0  0  0
   23.8507    9.4948    7.3893 H   0  0  0  0  0  0  0  0  0  0  0  0
   25.5127    8.8135    7.3893 H   0  0  0  0  0  0  0  0  0  0  0  0
   25.1977   11.1152    6.2831 H   0  0  0  0  0  0  0  0  0  0  0  0
   24.9516   11.7394    7.9712 H   0  0  0  0  0  0  0  0  0  0  0  0
   27.3905   13.2340    7.5130 H   0  0  0  0  0  0  0  0  0  0  0  0
   26.6210   16.4124    8.8775 H   0  0  0  0  0  0  0  0  0  0  0  0
   24.0220   14.2012    8.9692 H   0  0  0  0  0  0  0  0  0  0  0  0
   21.7068   14.8545    9.6108 H   0  0  0  0  0  0  0  0  0  0  0  0
   21.3044   16.2294   11.6723 H   0  0  0  0  0  0  0  0  0  0  0  0
   26.2694   15.6880   13.2735 H   0  0  0  0  0  0  0  0  0  0  0  0
   26.4109   17.1927   12.3906 H   0  0  0  0  0  0  0  0  0  0  0  0
   24.3596   18.2001   15.4612 H   0  0  0  0  0  0  0  0  0  0  0  0
   25.9825   16.4586   16.1290 H   0  0  0  0  0  0  0  0  0  0  0  0
   27.2289   17.2089   15.0771 H   0  0  0  0  0  0  0  0  0  0  0  0
   25.8283   18.4958   17.4727 H   0  0  0  0  0  0  0  0  0  0  0  0
   27.5535   17.9593   17.3684 H   0  0  0  0  0  0  0  0  0  0  0  0
   26.4023   21.1703   14.9731 H   0  0  0  0  0  0  0  0  0  0  0  0
   26.4697   13.0968   11.5177 H   0  0  0  0  0  0  0  0  0  0  0  0
   29.7685    9.6702    7.9846 H   0  0  0  0  0  0  0  0  0  0  0  0
  1  2  1  0
  2  3  1  0
  3  4  2  0
  4  5  1  0
  5  6  1  0
  6  7  2  0
  6  8  2  0
  6  9  1  0
  9 10  1  0
 10 11  2  0
 11 12  1  0
 12 13  2  0
 13 14  1  0
 14 15  2  0
 15 16  1  0
 16 17  2  0
 17 18  1  0
 18 19  2  0
 19 20  1  0
 20 21  1  0
 21 22  1  0
 22 23  1  0
 23 24  1  0
 24 25  1  0
 25 26  2  0
 25 27  1  0
 27 28  1  0
 28 29  2  0
 21 30  1  0
 30 31  2  0
 13 32  1  0
 32 33  2  0
  5 34  1  0
 34 35  2  0
 35  3  1  0
 33 10  1  0
 19 14  1  0
 28 22  1  0
 30 18  1  0
  1 36  1  0
  1 37  1  0
  1 38  1  0
  2 39  1  0
  2 40  1  0
  4 41  1  0
 12 42  1  0
 15 43  1  0
 16 44  1  0
 17 45  1  0
 20 46  1  0
 20 47  1  0
 22 48  1  1
 23 49  1  0
 23 50  1  0
 24 51  1  0
 24 52  1  0
 27 53  1  0
 32 54  1  0
 34 55  1  0
M  END
>  <meeko>  (959) 
{"is_sidechain": [true], "free_energy": -11.07, "intermolecular_energy": 0.0, "internal_energy": -11.07, "cluster_size": 12, "cluster_id": 1, "rank_in_cluster": 1}

>  <_RMSD_MCS_to_ref>  (959) 
1.1239979240787477

$$$$
ligand
     RDKit          3D

 60 65  0  0  0  0  0  0  0  0999 V2000
   24.8710    9.6160    7.7820 C   0  0  0  0  0  0  0  0  0  0  0  0
   25.4240   10.9650    7.3490 C   0  0  0  0  0  0  0  0  0  0  0  0
   26.8030   11.1970    7.8600 C   0  0  0  0  0  0  0  0  0  0  0  0
   27.2830   12.2520    8.6100 C   0  0  0  0  0  0  0  0  0  0  0  0
   28.5980   11.9450    8.8180 N   0  0  0  0  0  0  0  0  0  0  0  0
   29.7560   12.9560    9.5130 S   0  0  0  0  0  6  0  0  0  0  0  0
   29.4650   12.9300   10.9350 O   0  0  0  0  0  0  0  0  0  0  0  0
   31.0210   12.4530    9.0070 O   0  0  0  0  0  0  0  0  0  0  0  0
   29.5420   14.4690    8.9290 O   0  0  0  0  0  0  0  0  0  0  0  0
   29.0280   14.6560    7.6580 C   0  0  0  0  0  0  0  0  0  0  0  0
   29.8310   14.2660    6.5600 C   0  0  0  0  0  0  0  0  0  0  0  0
   29.2140   14.4770    5.3190 C   0  0  0  0  0  0  0  0  0  0  0  0
   29.6700   14.2470    4.0780 N   0  0  0  0  0  0  0  0  0  0  0  0
   28.6630   14.6170    3.2640 N   0  0  0  0  0  0  0  0  0  0  0  0
   27.5610   15.0950    3.9130 C   0  0  0  0  0  0  0  0  0  0  0  0
   27.8840   15.0180    5.2380 C   0  0  0  0  0  0  0  0  0  0  0  0
   27.0590   15.3870    6.2930 C   0  0  0  0  0  0  0  0  0  0  0  0
   27.6790   15.1780    7.5540 C   0  0  0  0  0  0  0  0  0  0  0  0
   26.9120   15.5230    8.7670 C   0  0  0  0  0  0  0  0  0  0  0  0
   25.6830   14.8790    9.0550 C   0  0  0  0  0  0  0  0  0  0  0  0
   24.9630   15.1680   10.2180 C   0  0  0  0  0  0  0  0  0  0  0  0
   25.4990   16.1020   11.0800 C   0  0  0  0  0  0  0  0  0  0  0  0
   26.6980   16.7580   10.8230 C   0  0  0  0  0  0  0  0  0  0  0  0
   27.4060   16.4910    9.6630 C   0  0  0  0  0  0  0  0  0  0  0  0
   27.0250   17.6920   11.9400 C   0  0  0  0  0  0  0  0  0  0  0  0
   25.9370   17.4490   12.8790 N   0  0  0  0  0  0  0  0  0  0  0  0
   25.6750   18.2910   14.0400 C   0  0  1  0  0  0  0  0  0  0  0  0
   26.3140   17.7430   15.3130 C   0  0  0  0  0  0  0  0  0  0  0  0
   25.9240   18.6220   16.4920 C   0  0  0  0  0  0  0  0  0  0  0  0
   26.3040   20.0640   16.2460 C   0  0  0  0  0  0  0  0  0  0  0  0
   26.6930   20.8040   17.1440 O   0  0  0  0  0  0  0  0  0  0  0  0
   26.1730   20.5210   14.9590 N   0  0  0  0  0  0  0  0  0  0  0  0
   26.1500   19.7390   13.8270 C   0  0  0  0  0  0  0  0  0  0  0  0
   26.5010   20.2050   12.7450 O   0  0  0  0  0  0  0  0  0  0  0  0
   24.9850   16.5800   12.3680 C   0  0  0  0  0  0  0  0  0  0  0  0
   23.9240   16.2520   12.8630 O   0  0  0  0  0  0  0  0  0  0  0  0
   28.8910   10.7860    8.1740 C   0  0  0  0  0  0  0  0  0  0  0  0
   27.8160   10.3000    7.5830 N   0  0  0  0  0  0  0  0  0  0  0  0
   24.8497    9.5640    8.8806 H   0  0  0  0  0  0  0  0  0  0  0  0
   23.8507    9.4948    7.3893 H   0  0  0  0  0  0  0  0  0  0  0  0
   25.5127    8.8135    7.3893 H   0  0  0  0  0  0  0  0  0  0  0  0
   25.4421   11.0043    6.2499 H   0  0  0  0  0  0  0  0  0  0  0  0
   24.7728   11.7470    7.7665 H   0  0  0  0  0  0  0  0  0  0  0  0
   26.7324   13.1376    8.9602 H   0  0  0  0  0  0  0  0  0  0  0  0
   30.8391   13.8397    6.6694 H   0  0  0  0  0  0  0  0  0  0  0  0
   28.7194   14.5454    2.2380 H   0  0  0  0  0  0  0  0  0  0  0  0
   26.6234   15.4602    3.4686 H   0  0  0  0  0  0  0  0  0  0  0  0
   26.0446   15.7934    6.1668 H   0  0  0  0  0  0  0  0  0  0  0  0
   25.2868   14.1353    8.3479 H   0  0  0  0  0  0  0  0  0  0  0  0
   24.0068   14.6702   10.4370 H   0  0  0  0  0  0  0  0  0  0  0  0
   28.3411   17.0275    9.4445 H   0  0  0  0  0  0  0  0  0  0  0  0
   27.9997   17.4500   12.3888 H   0  0  0  0  0  0  0  0  0  0  0  0
   27.1075   18.7427   11.6248 H   0  0  0  0  0  0  0  0  0  0  0  0
   24.5817   18.2857   14.1613 H   0  0  0  0  0  0  0  0  0  0  0  0
   25.9611   16.7160   15.4882 H   0  0  0  0  0  0  0  0  0  0  0  0
   27.4085   17.7395   15.2030 H   0  0  0  0  0  0  0  0  0  0  0  0
   24.8363   18.5581   16.6432 H   0  0  0  0  0  0  0  0  0  0  0  0
   26.4604   18.2671   17.3844 H   0  0  0  0  0  0  0  0  0  0  0  0
   26.0841   21.5388   14.8287 H   0  0  0  0  0  0  0  0  0  0  0  0
   29.8859   10.3175    8.1485 H   0  0  0  0  0  0  0  0  0  0  0  0
  1  2  1  0
  2  3  1  0
  3  4  2  0
  4  5  1  0
  5  6  1  0
  6  7  2  0
  6  8  2  0
  6  9  1  0
  9 10  1  0
 10 11  2  0
 11 12  1  0
 12 13  2  0
 13 14  1  0
 14 15  1  0
 15 16  2  0
 16 17  1  0
 17 18  2  0
 18 19  1  0
 19 20  2  0
 20 21  1  0
 21 22  2  0
 22 23  1  0
 23 24  2  0
 23 25  1  0
 25 26  1  0
 26 27  1  0
 27 28  1  0
 28 29  1  0
 29 30  1  0
 30 31  2  0
 30 32  1  0
 32 33  1  0
 33 34  2  0
 26 35  1  0
 35 36  2  0
  5 37  1  0
 37 38  2  0
 38  3  1  0
 18 10  1  0
 24 19  1  0
 33 27  1  0
 16 12  1  0
 35 22  1  0
  1 39  1  0
  1 40  1  0
  1 41  1  0
  2 42  1  0
  2 43  1  0
  4 44  1  0
 11 45  1  0
 14 46  1  0
 15 47  1  0
 17 48  1  0
 20 49  1  0
 21 50  1  0
 24 51  1  0
 25 52  1  0
 25 53  1  0
 27 54  1  1
 28 55  1  0
 28 56  1  0
 29 57  1  0
 29 58  1  0
 32 59  1  0
 37 60  1  0
M  END
>  <meeko>  (960) 
{"is_sidechain": [true], "free_energy": -11.07, "intermolecular_energy": 0.0, "internal_energy": -11.07, "cluster_size": 10, "cluster_id": 1, "rank_in_cluster": 1}

>  <_RMSD_MCS_to_ref>  (960) 
1.3723108248498224

$$$$
ligand
     RDKit          3D

 48 51  0  0  0  0  0  0  0  0999 V2000
   24.8710    9.6160    7.7820 C   0  0  0  0  0  0  0  0  0  0  0  0
   25.4240   10.9650    7.3490 C   0  0  0  0  0  0  0  0  0  0  0  0
   26.7890   11.2110    7.8890 C   0  0  0  0  0  0  0  0  0  0  0  0
   27.1690   11.9740    8.9760 C   0  0  0  0  0  0  0  0  0  0  0  0
   28.5250   11.8190    9.0370 N   0  0  0  0  0  0  0  0  0  0  0  0
   29.5740   12.7050   10.0130 S   0  0  0  0  0  6  0  0  0  0  0  0
   29.1510   12.4170   11.3710 O   0  0  0  0  0  0  0  0  0  0  0  0
   30.9020   12.3610    9.5420 O   0  0  0  0  0  0  0  0  0  0  0  0
   29.2830   14.2740    9.6860 O   0  0  0  0  0  0  0  0  0  0  0  0
   28.0260   14.7390    9.4040 C   0  0  0  0  0  0  0  0  0  0  0  0
   27.3850   14.6940    8.1680 C   0  0  0  0  0  0  0  0  0  0  0  0
   26.1400   15.1590    7.9060 N   0  0  0  0  0  0  0  0  0  0  0  0
   25.5330   15.6930    8.9790 C   0  0  0  0  0  0  0  0  0  0  0  0
   24.2810   16.2200    8.9360 O   0  0  0  0  0  0  0  0  0  0  0  0
   23.9890   16.6670   10.1840 C   0  0  0  0  0  0  0  0  0  0  0  0
   25.0360   16.4370   11.0580 C   0  0  0  0  0  0  0  0  0  0  0  0
   25.1060   16.7750   12.4700 C   0  0  0  0  0  0  0  0  0  0  0  0
   24.9350   15.9360   13.3490 O   0  0  0  0  0  0  0  0  0  0  0  0
   25.3640   18.0940   12.7640 N   0  0  0  0  0  0  0  0  0  0  0  0
   25.3160   18.5890   14.1330 C   0  0  1  0  0  0  0  0  0  0  0  0
   26.3270   17.8930   15.0380 C   0  0  0  0  0  0  0  0  0  0  0  0
   26.2530   18.4910   16.4350 C   0  0  0  0  0  0  0  0  0  0  0  0
   26.4580   19.9880   16.4030 C   0  0  0  0  0  0  0  0  0  0  0  0
   27.0260   20.5930   17.3080 O   0  0  0  0  0  0  0  0  0  0  0  0
   25.9520   20.6550   15.3170 N   0  0  0  0  0  0  0  0  0  0  0  0
   25.6190   20.0900   14.1120 C   0  0  0  0  0  0  0  0  0  0  0  0
   25.5650   20.7620   13.0830 O   0  0  0  0  0  0  0  0  0  0  0  0
   26.0480   15.8040   10.2670 C   0  0  0  0  0  0  0  0  0  0  0  0
   27.3450   15.3060   10.4850 C   0  0  0  0  0  0  0  0  0  0  0  0
   28.9340   11.0680    7.9820 C   0  0  0  0  0  0  0  0  0  0  0  0
   27.8980   10.6610    7.2780 N   0  0  0  0  0  0  0  0  0  0  0  0
   24.8497    9.5640    8.8806 H   0  0  0  0  0  0  0  0  0  0  0  0
   23.8507    9.4948    7.3893 H   0  0  0  0  0  0  0  0  0  0  0  0
   25.5127    8.8135    7.3893 H   0  0  0  0  0  0  0  0  0  0  0  0
   25.4668   10.9945    6.2502 H   0  0  0  0  0  0  0  0  0  0  0  0
   24.7580   11.7463    7.7440 H   0  0  0  0  0  0  0  0  0  0  0  0
   26.5265   12.5702    9.6407 H   0  0  0  0  0  0  0  0  0  0  0  0
   27.9381   14.2414    7.3318 H   0  0  0  0  0  0  0  0  0  0  0  0
   23.0413   17.1501   10.4643 H   0  0  0  0  0  0  0  0  0  0  0  0
   25.5959   18.7449   12.0002 H   0  0  0  0  0  0  0  0  0  0  0  0
   24.3138   18.3828   14.5369 H   0  0  0  0  0  0  0  0  0  0  0  0
   26.0969   16.8184   15.0865 H   0  0  0  0  0  0  0  0  0  0  0  0
   27.3398   18.0332   14.6323 H   0  0  0  0  0  0  0  0  0  0  0  0
   25.2645   18.2738   16.8658 H   0  0  0  0  0  0  0  0  0  0  0  0
   27.0507   18.0443   17.0466 H   0  0  0  0  0  0  0  0  0  0  0  0
   25.8093   21.6704   15.4146 H   0  0  0  0  0  0  0  0  0  0  0  0
   27.8112   15.3612   11.4798 H   0  0  0  0  0  0  0  0  0  0  0  0
   29.9828   10.8328    7.7484 H   0  0  0  0  0  0  0  0  0  0  0  0
  1  2  1  0
  2  3  1  0
  3  4  2  0
  4  5  1  0
  5  6  1  0
  6  7  2  0
  6  8  2  0
  6  9  1  0
  9 10  1  0
 10 11  2  0
 11 12  1  0
 12 13  2  0
 13 14  1  0
 14 15  1  0
 15 16  2  0
 16 17  1  0
 17 18  2  0
 17 19  1  0
 19 20  1  0
 20 21  1  0
 21 22  1  0
 22 23  1  0
 23 24  2  0
 23 25  1  0
 25 26  1  0
 26 27  2  0
 16 28  1  0
 28 29  2  0
  5 30  1  0
 30 31  2  0
 31  3  1  0
 29 10  1  0
 28 13  1  0
 26 20  1  0
  1 32  1  0
  1 33  1  0
  1 34  1  0
  2 35  1  0
  2 36  1  0
  4 37  1  0
 11 38  1  0
 15 39  1  0
 19 40  1  0
 20 41  1  1
 21 42  1  0
 21 43  1  0
 22 44  1  0
 22 45  1  0
 25 46  1  0
 29 47  1  0
 30 48  1  0
M  END
>  <meeko>  (961) 
{"is_sidechain": [true], "free_energy": -11.07, "intermolecular_energy": 0.0, "internal_energy": -11.07, "cluster_size": 18, "cluster_id": 1, "rank_in_cluster": 1}

>  <_RMSD_MCS_to_ref>  (961) 
0.762452548614594

$$$$
ligand
     RDKit          3D

 54 58  0  0  0  0  0  0  0  0999 V2000
   24.8540    9.4020    7.6050 C   0  0  0  0  0  0  0  0  0  0  0  0
   25.5230   10.7550    7.4270 C   0  0  0  0  0  0  0  0  0  0  0  0
   24.9740   11.5080    6.2660 C   0  0  0  0  0  0  0  0  0  0  0  0
   25.0060   12.8680    6.0250 C   0  0  0  0  0  0  0  0  0  0  0  0
   24.3420   13.0160    4.8410 N   0  0  0  0  0  0  0  0  0  0  0  0
   24.3010   14.4260    3.9130 S   0  0  0  0  0  6  0  0  0  0  0  0
   25.2400   14.1990    2.8300 O   0  0  0  0  0  0  0  0  0  0  0  0
   22.8910   14.6460    3.6500 O   0  0  0  0  0  0  0  0  0  0  0  0
   24.8380   15.6390    4.8690 O   0  0  0  0  0  0  0  0  0  0  0  0
   26.1430   15.7250    5.1810 C   0  0  0  0  0  0  0  0  0  0  0  0
   27.2610   15.5830    4.3470 C   0  0  0  0  0  0  0  0  0  0  0  0
   28.4000   15.7030    5.0330 N   0  0  0  0  0  0  0  0  0  0  0  0
   27.9930   15.9400    6.2950 N   0  0  0  0  0  0  0  0  0  0  0  0
   26.6270   15.9510    6.4510 C   0  0  0  0  0  0  0  0  0  0  0  0
   25.9590   16.1320    7.7340 C   0  0  0  0  0  0  0  0  0  0  0  0
   24.7560   15.4410    8.0060 C   0  0  0  0  0  0  0  0  0  0  0  0
   24.1190   15.5610    9.2440 C   0  0  0  0  0  0  0  0  0  0  0  0
   24.7110   16.3800   10.1850 C   0  0  0  0  0  0  0  0  0  0  0  0
   25.8950   17.0700    9.9440 C   0  0  0  0  0  0  0  0  0  0  0  0
   26.5330   16.9550    8.7190 C   0  0  0  0  0  0  0  0  0  0  0  0
   26.3000   17.8280   11.1620 C   0  0  0  0  0  0  0  0  0  0  0  0
   25.1840   17.5950   12.0700 N   0  0  0  0  0  0  0  0  0  0  0  0
   25.2550   17.9810   13.4740 C   0  0  1  0  0  0  0  0  0  0  0  0
   26.2630   17.1660   14.2840 C   0  0  0  0  0  0  0  0  0  0  0  0
   26.2130   17.6040   15.7390 C   0  0  0  0  0  0  0  0  0  0  0  0
   26.4700   19.0870   15.8750 C   0  0  0  0  0  0  0  0  0  0  0  0
   26.8930   19.5850   16.9140 O   0  0  0  0  0  0  0  0  0  0  0  0
   26.1290   19.8730   14.8030 N   0  0  0  0  0  0  0  0  0  0  0  0
   25.5340   19.4850   13.6240 C   0  0  0  0  0  0  0  0  0  0  0  0
   25.1680   20.3290   12.8060 O   0  0  0  0  0  0  0  0  0  0  0  0
   24.2840   16.6720   11.5580 C   0  0  0  0  0  0  0  0  0  0  0  0
   23.3300   16.1590   12.1080 O   0  0  0  0  0  0  0  0  0  0  0  0
   23.9980   11.7880    4.3700 C   0  0  0  0  0  0  0  0  0  0  0  0
   24.3570   10.8480    5.2200 N   0  0  0  0  0  0  0  0  0  0  0  0
   24.7464    9.1845    8.6779 H   0  0  0  0  0  0  0  0  0  0  0  0
   23.8606    9.4192    7.1330 H   0  0  0  0  0  0  0  0  0  0  0  0
   25.4708    8.6230    7.1330 H   0  0  0  0  0  0  0  0  0  0  0  0
   25.3677   11.3493    8.3395 H   0  0  0  0  0  0  0  0  0  0  0  0
   26.5926   10.5796    7.2392 H   0  0  0  0  0  0  0  0  0  0  0  0
   25.4625   13.6531    6.6457 H   0  0  0  0  0  0  0  0  0  0  0  0
   27.2066   15.3963    3.2643 H   0  0  0  0  0  0  0  0  0  0  0  0
   28.6474   16.0990    7.0744 H   0  0  0  0  0  0  0  0  0  0  0  0
   24.3141   14.7983    7.2303 H   0  0  0  0  0  0  0  0  0  0  0  0
   23.1834   15.0245    9.4602 H   0  0  0  0  0  0  0  0  0  0  0  0
   27.4697   17.4968    8.5213 H   0  0  0  0  0  0  0  0  0  0  0  0
   27.2393   17.4360   11.5791 H   0  0  0  0  0  0  0  0  0  0  0  0
   26.4909   18.8941   10.9694 H   0  0  0  0  0  0  0  0  0  0  0  0
   24.2637   17.7551   13.8939 H   0  0  0  0  0  0  0  0  0  0  0  0
   26.0122   16.0973   14.2135 H   0  0  0  0  0  0  0  0  0  0  0  0
   27.2747   17.3312   13.8849 H   0  0  0  0  0  0  0  0  0  0  0  0
   25.2184   17.3736   16.1486 H   0  0  0  0  0  0  0  0  0  0  0  0
   26.9960   17.0638   16.2914 H   0  0  0  0  0  0  0  0  0  0  0  0
   26.3447   20.8763   14.8915 H   0  0  0  0  0  0  0  0  0  0  0  0
   23.4901   11.6047    3.4116 H   0  0  0  0  0  0  0  0  0  0  0  0
  1  2  1  0
  2  3  1  0
  3  4  2  0
  4  5  1  0
  5  6  1  0
  6  7  2  0
  6  8  2  0
  6  9  1  0
  9 10  1  0
 10 11  1  0
 11 12  2  0
 12 13  1  0
 13 14  1  0
 14 15  1  0
 15 16  2  0
 16 17  1  0
 17 18  2  0
 18 19  1  0
 19 20  2  0
 19 21  1  0
 21 22  1  0
 22 23  1  0
 23 24  1  0
 24 25  1  0
 25 26  1  0
 26 27  2  0
 26 28  1  0
 28 29  1  0
 29 30  2  0
 22 31  1  0
 31 32  2  0
  5 33  1  0
 33 34  2  0
 34  3  1  0
 14 10  2  0
 20 15  1  0
 29 23  1  0
 31 18  1  0
  1 35  1  0
  1 36  1  0
  1 37  1  0
  2 38  1  0
  2 39  1  0
  4 40  1  0
 11 41  1  0
 13 42  1  0
 16 43  1  0
 17 44  1  0
 20 45  1  0
 21 46  1  0
 21 47  1  0
 23 48  1  1
 24 49  1  0
 24 50  1  0
 25 51  1  0
 25 52  1  0
 28 53  1  0
 33 54  1  0
M  END
>  <meeko>  (962) 
{"is_sidechain": [true], "free_energy": -11.06, "intermolecular_energy": 0.0, "internal_energy": -11.06, "cluster_size": 12, "cluster_id": 1, "rank_in_cluster": 1}

>  <_RMSD_MCS_to_ref>  (962) 
1.2182055108505565

$$$$
ligand
     RDKit          3D

 54 58  0  0  0  0  0  0  0  0999 V2000
   24.8540    9.4020    7.6050 C   0  0  0  0  0  0  0  0  0  0  0  0
   25.5230   10.7550    7.4270 C   0  0  0  0  0  0  0  0  0  0  0  0
   25.3020   11.3170    6.0670 C   0  0  0  0  0  0  0  0  0  0  0  0
   24.5160   12.3880    5.6860 C   0  0  0  0  0  0  0  0  0  0  0  0
   24.6560   12.4380    4.3270 N   0  0  0  0  0  0  0  0  0  0  0  0
   24.1010   13.6730    3.3240 S   0  0  0  0  0  6  0  0  0  0  0  0
   24.4800   13.2590    1.9860 O   0  0  0  0  0  0  0  0  0  0  0  0
   22.7070   13.8470    3.6910 O   0  0  0  0  0  0  0  0  0  0  0  0
   24.9380   14.9980    3.7400 O   0  0  0  0  0  0  0  0  0  0  0  0
   25.2490   15.2510    5.0170 C   0  0  0  0  0  0  0  0  0  0  0  0
   24.4510   15.5950    6.1210 C   0  0  0  0  0  0  0  0  0  0  0  0
   25.3370   15.7270    7.1760 C   0  0  0  0  0  0  0  0  0  0  0  0
   25.1240   16.0810    8.5780 C   0  0  0  0  0  0  0  0  0  0  0  0
   23.9550   15.6680    9.2600 C   0  0  0  0  0  0  0  0  0  0  0  0
   23.7440   15.9980   10.6020 C   0  0  0  0  0  0  0  0  0  0  0  0
   24.7170   16.7450   11.2340 C   0  0  0  0  0  0  0  0  0  0  0  0
   25.8740   17.1700   10.5890 C   0  0  0  0  0  0  0  0  0  0  0  0
   26.0920   16.8450    9.2580 C   0  0  0  0  0  0  0  0  0  0  0  0
   26.7360   17.9360   11.5350 C   0  0  0  0  0  0  0  0  0  0  0  0
   25.9160   17.9870   12.7400 N   0  0  0  0  0  0  0  0  0  0  0  0
   26.4220   18.4130   14.0400 C   0  0  2  0  0  0  0  0  0  0  0  0
   26.0400   17.4510   15.1590 C   0  0  0  0  0  0  0  0  0  0  0  0
   26.6770   17.9130   16.4620 C   0  0  0  0  0  0  0  0  0  0  0  0
   26.2870   19.3380   16.7830 C   0  0  0  0  0  0  0  0  0  0  0  0
   26.1010   19.7240   17.9320 O   0  0  0  0  0  0  0  0  0  0  0  0
   26.1700   20.1960   15.7200 N   0  0  0  0  0  0  0  0  0  0  0  0
   25.9470   19.8280   14.4120 C   0  0  0  0  0  0  0  0  0  0  0  0
   25.3940   20.6040   13.6350 O   0  0  0  0  0  0  0  0  0  0  0  0
   24.7620   17.2270   12.6180 C   0  0  0  0  0  0  0  0  0  0  0  0
   23.9290   16.9840   13.4700 O   0  0  0  0  0  0  0  0  0  0  0  0
   26.5730   15.4760    6.6290 N   0  0  0  0  0  0  0  0  0  0  0  0
   26.5420   15.1740    5.3190 N   0  0  0  0  0  0  0  0  0  0  0  0
   25.5510   11.4940    3.9380 C   0  0  0  0  0  0  0  0  0  0  0  0
   25.9400   10.7750    4.9690 N   0  0  0  0  0  0  0  0  0  0  0  0
   24.7464    9.1845    8.6779 H   0  0  0  0  0  0  0  0  0  0  0  0
   23.8606    9.4192    7.1330 H   0  0  0  0  0  0  0  0  0  0  0  0
   25.4708    8.6230    7.1330 H   0  0  0  0  0  0  0  0  0  0  0  0
   25.1118   11.4540    8.1702 H   0  0  0  0  0  0  0  0  0  0  0  0
   26.6057   10.6168    7.5633 H   0  0  0  0  0  0  0  0  0  0  0  0
   23.9156   13.0486    6.3287 H   0  0  0  0  0  0  0  0  0  0  0  0
   23.3595   15.7300    6.1422 H   0  0  0  0  0  0  0  0  0  0  0  0
   23.1982   15.0763    8.7242 H   0  0  0  0  0  0  0  0  0  0  0  0
   22.8370   15.6746   11.1338 H   0  0  0  0  0  0  0  0  0  0  0  0
   27.0050   17.1783    8.7428 H   0  0  0  0  0  0  0  0  0  0  0  0
   27.6847   17.4115   11.7218 H   0  0  0  0  0  0  0  0  0  0  0  0
   27.0246   18.9287   11.1591 H   0  0  0  0  0  0  0  0  0  0  0  0
   27.5172   18.4170   13.9377 H   0  0  0  0  0  0  0  0  0  0  0  0
   24.9459   17.4342   15.2711 H   0  0  0  0  0  0  0  0  0  0  0  0
   26.3979   16.4404   14.9130 H   0  0  0  0  0  0  0  0  0  0  0  0
   26.3420   17.2562   17.2784 H   0  0  0  0  0  0  0  0  0  0  0  0
   27.7705   17.8662   16.3522 H   0  0  0  0  0  0  0  0  0  0  0  0
   26.2564   21.2033   15.9169 H   0  0  0  0  0  0  0  0  0  0  0  0
   27.4458   15.5158    7.1745 H   0  0  0  0  0  0  0  0  0  0  0  0
   25.9018   11.3504    2.9054 H   0  0  0  0  0  0  0  0  0  0  0  0
  1  2  1  0
  2  3  1  0
  3  4  2  0
  4  5  1  0
  5  6  1  0
  6  7  2  0
  6  8  2  0
  6  9  1  0
  9 10  1  0
 10 11  1  0
 11 12  2  0
 12 13  1  0
 13 14  2  0
 14 15  1  0
 15 16  2  0
 16 17  1  0
 17 18  2  0
 17 19  1  0
 19 20  1  0
 20 21  1  0
 21 22  1  0
 22 23  1  0
 23 24  1  0
 24 25  2  0
 24 26  1  0
 26 27  1  0
 27 28  2  0
 20 29  1  0
 29 30  2  0
 12 31  1  0
 31 32  1  0
  5 33  1  0
 33 34  2  0
 34  3  1  0
 32 10  2  0
 18 13  1  0
 27 21  1  0
 29 16  1  0
  1 35  1  0
  1 36  1  0
  1 37  1  0
  2 38  1  0
  2 39  1  0
  4 40  1  0
 11 41  1  0
 14 42  1  0
 15 43  1  0
 18 44  1  0
 19 45  1  0
 19 46  1  0
 21 47  1  6
 22 48  1  0
 22 49  1  0
 23 50  1  0
 23 51  1  0
 26 52  1  0
 31 53  1  0
 33 54  1  0
M  END
>  <meeko>  (963) 
{"is_sidechain": [true], "free_energy": -11.06, "intermolecular_energy": 0.0, "internal_energy": -11.06, "cluster_size": 6, "cluster_id": 2, "rank_in_cluster": 1}

>  <_RMSD_MCS_to_ref>  (963) 
1.08344686584581

$$$$
ligand
     RDKit          3D

 47 50  0  0  0  0  0  0  0  0999 V2000
   24.8710    9.6160    7.7820 C   0  0  0  0  0  0  0  0  0  0  0  0
   25.4240   10.9650    7.3490 C   0  0  0  0  0  0  0  0  0  0  0  0
   26.5090   11.4500    8.2480 C   0  0  0  0  0  0  0  0  0  0  0  0
   27.4530   12.4320    8.0150 C   0  0  0  0  0  0  0  0  0  0  0  0
   28.1460   12.5190    9.1880 N   0  0  0  0  0  0  0  0  0  0  0  0
   29.4360   13.5600    9.4910 S   0  0  0  0  0  6  0  0  0  0  0  0
   29.7630   13.3270   10.8880 O   0  0  0  0  0  0  0  0  0  0  0  0
   30.4180   13.2820    8.4570 O   0  0  0  0  0  0  0  0  0  0  0  0
   28.9200   15.1010    9.3640 O   0  0  0  0  0  0  0  0  0  0  0  0
   27.5950   15.3220    9.6110 C   0  0  0  0  0  0  0  0  0  0  0  0
   26.6710   15.0300    8.6170 C   0  0  0  0  0  0  0  0  0  0  0  0
   25.3230   15.2160    8.9040 C   0  0  0  0  0  0  0  0  0  0  0  0
   24.9760   15.6990   10.1640 C   0  0  0  0  0  0  0  0  0  0  0  0
   23.5860   15.8700   10.5990 C   0  0  0  0  0  0  0  0  0  0  0  0
   22.6450   15.6630    9.8450 O   0  0  0  0  0  0  0  0  0  0  0  0
   23.4250   16.2710   11.8980 N   0  0  0  0  0  0  0  0  0  0  0  0
   24.4740   16.5840   12.7080 C   0  0  0  0  0  0  0  0  0  0  0  0
   23.9510   17.1170   14.2740 S   0  0  0  0  0  0  0  0  0  0  0  0
   25.4530   17.9040   14.9550 C   0  0  2  0  0  0  0  0  0  0  0  0
   25.4340   17.8470   16.4820 C   0  0  0  0  0  0  0  0  0  0  0  0
   26.6820   18.5180   17.0250 C   0  0  0  0  0  0  0  0  0  0  0  0
   26.7650   19.9500   16.5570 C   0  0  0  0  0  0  0  0  0  0  0  0
   27.3090   20.8140   17.2390 O   0  0  0  0  0  0  0  0  0  0  0  0
   26.2690   20.2040   15.3020 N   0  0  0  0  0  0  0  0  0  0  0  0
   25.6780   19.3190   14.4240 C   0  0  0  0  0  0  0  0  0  0  0  0
   25.4230   19.6510   13.2660 O   0  0  0  0  0  0  0  0  0  0  0  0
   25.7070   16.5080   12.3540 N   0  0  0  0  0  0  0  0  0  0  0  0
   25.9720   16.0110   11.0770 C   0  0  0  0  0  0  0  0  0  0  0  0
   27.2850   15.8320   10.8170 N   0  0  0  0  0  0  0  0  0  0  0  0
   27.6890   11.5700   10.0450 C   0  0  0  0  0  0  0  0  0  0  0  0
   26.6850   10.9020    9.5070 N   0  0  0  0  0  0  0  0  0  0  0  0
   24.8497    9.5640    8.8806 H   0  0  0  0  0  0  0  0  0  0  0  0
   23.8507    9.4948    7.3893 H   0  0  0  0  0  0  0  0  0  0  0  0
   25.5127    8.8135    7.3893 H   0  0  0  0  0  0  0  0  0  0  0  0
   25.8258   10.8711    6.3293 H   0  0  0  0  0  0  0  0  0  0  0  0
   24.6015   11.6941    7.3929 H   0  0  0  0  0  0  0  0  0  0  0  0
   27.6103   13.0119    7.0936 H   0  0  0  0  0  0  0  0  0  0  0  0
   26.9952   14.6626    7.6322 H   0  0  0  0  0  0  0  0  0  0  0  0
   24.5503   14.9876    8.1552 H   0  0  0  0  0  0  0  0  0  0  0  0
   22.4703   16.3388   12.2787 H   0  0  0  0  0  0  0  0  0  0  0  0
   26.3201   17.3260   14.6029 H   0  0  0  0  0  0  0  0  0  0  0  0
   24.5424   18.3702   16.8581 H   0  0  0  0  0  0  0  0  0  0  0  0
   25.4072   16.7977   16.8110 H   0  0  0  0  0  0  0  0  0  0  0  0
   26.6529   18.4987   18.1244 H   0  0  0  0  0  0  0  0  0  0  0  0
   27.5643   17.9742   16.6566 H   0  0  0  0  0  0  0  0  0  0  0  0
   26.3481   21.1775   14.9751 H   0  0  0  0  0  0  0  0  0  0  0  0
   28.0986   11.3835   11.0487 H   0  0  0  0  0  0  0  0  0  0  0  0
  1  2  1  0
  2  3  1  0
  3  4  2  0
  4  5  1  0
  5  6  1  0
  6  7  2  0
  6  8  2  0
  6  9  1  0
  9 10  1  0
 10 11  2  0
 11 12  1  0
 12 13  2  0
 13 14  1  0
 14 15  2  0
 14 16  1  0
 16 17  1  0
 17 18  1  0
 18 19  1  0
 19 20  1  0
 20 21  1  0
 21 22  1  0
 22 23  2  0
 22 24  1  0
 24 25  1  0
 25 26  2  0
 17 27  2  0
 27 28  1  0
 28 29  2  0
  5 30  1  0
 30 31  2  0
 31  3  1  0
 29 10  1  0
 28 13  1  0
 25 19  1  0
  1 32  1  0
  1 33  1  0
  1 34  1  0
  2 35  1  0
  2 36  1  0
  4 37  1  0
 11 38  1  0
 12 39  1  0
 16 40  1  0
 19 41  1  6
 20 42  1  0
 20 43  1  0
 21 44  1  0
 21 45  1  0
 24 46  1  0
 30 47  1  0
M  END
>  <meeko>  (964) 
{"is_sidechain": [true], "free_energy": -11.06, "intermolecular_energy": 0.0, "internal_energy": -11.06, "cluster_size": 15, "cluster_id": 1, "rank_in_cluster": 1}

>  <_RMSD_MCS_to_ref>  (964) 
0.7602049065876905

$$$$
ligand
     RDKit          3D

 48 51  0  0  0  0  0  0  0  0999 V2000
   24.8710    9.6160    7.7820 C   0  0  0  0  0  0  0  0  0  0  0  0
   25.4240   10.9650    7.3490 C   0  0  0  0  0  0  0  0  0  0  0  0
   26.5500   11.4150    8.2110 C   0  0  0  0  0  0  0  0  0  0  0  0
   27.5690   12.2980    7.9180 C   0  0  0  0  0  0  0  0  0  0  0  0
   28.3170   12.3400    9.0610 N   0  0  0  0  0  0  0  0  0  0  0  0
   29.5280   13.4710    9.3930 S   0  0  0  0  0  6  0  0  0  0  0  0
   29.8110   13.3210   10.8090 O   0  0  0  0  0  0  0  0  0  0  0  0
   30.5470   13.2030    8.3930 O   0  0  0  0  0  0  0  0  0  0  0  0
   28.9170   14.9650    9.1080 O   0  0  0  0  0  0  0  0  0  0  0  0
   27.5570   15.1520    9.2130 C   0  0  0  0  0  0  0  0  0  0  0  0
   26.7540   14.9620    8.0580 C   0  0  0  0  0  0  0  0  0  0  0  0
   25.3570   15.1390    8.0660 C   0  0  0  0  0  0  0  0  0  0  0  0
   24.7990   15.5210    9.3070 C   0  0  0  0  0  0  0  0  0  0  0  0
   23.5090   15.7600    9.5610 N   0  0  0  0  0  0  0  0  0  0  0  0
   23.3120   16.1960   11.1360 S   0  0  0  0  0  0  0  0  0  0  0  0
   24.9560   16.0900   11.6050 C   0  0  0  0  0  0  0  0  0  0  0  0
   25.3880   16.3970   12.9580 C   0  0  0  0  0  0  0  0  0  0  0  0
   25.4830   15.5550   13.8500 O   0  0  0  0  0  0  0  0  0  0  0  0
   25.7100   17.7130   13.2200 N   0  0  0  0  0  0  0  0  0  0  0  0
   26.3100   18.1260   14.4810 C   0  0  2  0  0  0  0  0  0  0  0  0
   25.3040   18.1350   15.6260 C   0  0  0  0  0  0  0  0  0  0  0  0
   25.9880   18.6130   16.8980 C   0  0  0  0  0  0  0  0  0  0  0  0
   26.6310   19.9670   16.7000 C   0  0  0  0  0  0  0  0  0  0  0  0
   26.6950   20.8020   17.5970 O   0  0  0  0  0  0  0  0  0  0  0  0
   27.1720   20.2150   15.4640 N   0  0  0  0  0  0  0  0  0  0  0  0
   26.8750   19.5390   14.3070 C   0  0  0  0  0  0  0  0  0  0  0  0
   27.0640   20.0470   13.2030 O   0  0  0  0  0  0  0  0  0  0  0  0
   25.6670   15.6910   10.4870 C   0  0  0  0  0  0  0  0  0  0  0  0
   27.0560   15.4920   10.4850 C   0  0  0  0  0  0  0  0  0  0  0  0
   27.7350   11.5520   10.0020 C   0  0  0  0  0  0  0  0  0  0  0  0
   26.6660   10.9590    9.5100 N   0  0  0  0  0  0  0  0  0  0  0  0
   24.8497    9.5640    8.8806 H   0  0  0  0  0  0  0  0  0  0  0  0
   23.8507    9.4948    7.3893 H   0  0  0  0  0  0  0  0  0  0  0  0
   25.5127    8.8135    7.3893 H   0  0  0  0  0  0  0  0  0  0  0  0
   25.7822   10.8845    6.3121 H   0  0  0  0  0  0  0  0  0  0  0  0
   24.6150   11.7051    7.4374 H   0  0  0  0  0  0  0  0  0  0  0  0
   27.7403   12.8438    6.9784 H   0  0  0  0  0  0  0  0  0  0  0  0
   27.2428   14.6644    7.1186 H   0  0  0  0  0  0  0  0  0  0  0  0
   24.7414   14.9899    7.1667 H   0  0  0  0  0  0  0  0  0  0  0  0
   25.5200   18.4256   12.5010 H   0  0  0  0  0  0  0  0  0  0  0  0
   27.0985   17.4030   14.7370 H   0  0  0  0  0  0  0  0  0  0  0  0
   24.4736   18.8129   15.3792 H   0  0  0  0  0  0  0  0  0  0  0  0
   24.9138   17.1180   15.7794 H   0  0  0  0  0  0  0  0  0  0  0  0
   25.2403   18.6854   17.7015 H   0  0  0  0  0  0  0  0  0  0  0  0
   26.7742   17.8904   17.1622 H   0  0  0  0  0  0  0  0  0  0  0  0
   27.8626   20.9763   15.3984 H   0  0  0  0  0  0  0  0  0  0  0  0
   27.6864   15.5909   11.3810 H   0  0  0  0  0  0  0  0  0  0  0  0
   28.1043   11.4265   11.0305 H   0  0  0  0  0  0  0  0  0  0  0  0
  1  2  1  0
  2  3  1  0
  3  4  2  0
  4  5  1  0
  5  6  1  0
  6  7  2  0
  6  8  2  0
  6  9  1  0
  9 10  1  0
 10 11  1  0
 11 12  2  0
 12 13  1  0
 13 14  2  0
 14 15  1  0
 15 16  1  0
 16 17  1  0
 17 18  2  0
 17 19  1  0
 19 20  1  0
 20 21  1  0
 21 22  1  0
 22 23  1  0
 23 24  2  0
 23 25  1  0
 25 26  1  0
 26 27  2  0
 16 28  2  0
 28 29  1  0
  5 30  1  0
 30 31  2  0
 31  3  1  0
 29 10  2  0
 28 13  1  0
 26 20  1  0
  1 32  1  0
  1 33  1  0
  1 34  1  0
  2 35  1  0
  2 36  1  0
  4 37  1  0
 11 38  1  0
 12 39  1  0
 19 40  1  0
 20 41  1  1
 21 42  1  0
 21 43  1  0
 22 44  1  0
 22 45  1  0
 25 46  1  0
 29 47  1  0
 30 48  1  0
M  END
>  <meeko>  (965) 
{"is_sidechain": [true], "free_energy": -11.05, "intermolecular_energy": 0.0, "internal_energy": -11.05, "cluster_size": 16, "cluster_id": 1, "rank_in_cluster": 1}

>  <_RMSD_MCS_to_ref>  (965) 
1.3778172350980857

$$$$
ligand
     RDKit          3D

 63 67  0  0  0  0  0  0  0  0999 V2000
   24.8540    9.4020    7.6050 C   0  0  0  0  0  0  0  0  0  0  0  0
   25.5230   10.7550    7.4270 C   0  0  0  0  0  0  0  0  0  0  0  0
   24.6390   11.8780    7.8420 C   0  0  0  0  0  0  0  0  0  0  0  0
   24.7970   12.7680    8.8870 C   0  0  0  0  0  0  0  0  0  0  0  0
   23.6810   13.5540    8.8280 N   0  0  0  0  0  0  0  0  0  0  0  0
   23.3960   14.9340    9.7530 S   0  0  0  0  0  6  0  0  0  0  0  0
   22.2420   14.5980   10.5700 O   0  0  0  0  0  0  0  0  0  0  0  0
   23.3430   16.0230    8.7960 O   0  0  0  0  0  0  0  0  0  0  0  0
   24.6870   15.1010   10.7430 O   0  0  0  0  0  0  0  0  0  0  0  0
   25.5890   16.0740   10.4430 C   0  0  0  0  0  0  0  0  0  0  0  0
   26.2060   16.1170    9.1920 C   0  0  0  0  0  0  0  0  0  0  0  0
   27.1280   17.1450    8.8740 C   0  0  0  0  0  0  0  0  0  0  0  0
   27.7930   17.1450    7.5050 C   0  0  0  0  0  0  0  0  0  0  0  0
   27.1550   18.1790    6.5620 C   0  0  0  0  0  0  0  0  0  0  0  0
   27.8330   18.1790    5.1920 C   0  0  0  0  0  0  0  0  0  0  0  0
   27.8420   16.7860    4.5680 C   0  0  0  0  0  0  0  0  0  0  0  0
   28.4720   15.7540    5.4980 C   0  0  0  0  0  0  0  0  0  0  0  0
   27.7950   15.7440    6.8690 C   0  0  0  0  0  0  0  0  0  0  0  0
   27.4140   18.1410    9.8290 C   0  0  0  0  0  0  0  0  0  0  0  0
   26.7810   18.0940   11.0600 C   0  0  0  0  0  0  0  0  0  0  0  0
   25.8820   17.0720   11.3470 C   0  0  0  0  0  0  0  0  0  0  0  0
   25.3820   17.2740   12.7090 C   0  0  0  0  0  0  0  0  0  0  0  0
   24.6450   16.5010   13.2910 O   0  0  0  0  0  0  0  0  0  0  0  0
   25.9230   18.4670   13.1640 N   0  0  0  0  0  0  0  0  0  0  0  0
   25.8590   18.9250   14.5500 C   0  0  1  0  0  0  0  0  0  0  0  0
   26.9710   18.3650   15.4360 C   0  0  0  0  0  0  0  0  0  0  0  0
   26.7690   18.8490   16.8640 C   0  0  0  0  0  0  0  0  0  0  0  0
   26.7200   20.3580   16.9300 C   0  0  0  0  0  0  0  0  0  0  0  0
   26.9590   20.9740   17.9640 O   0  0  0  0  0  0  0  0  0  0  0  0
   26.3070   21.0120   15.7960 N   0  0  0  0  0  0  0  0  0  0  0  0
   25.8280   20.4590   14.6300 C   0  0  0  0  0  0  0  0  0  0  0  0
   25.3130   21.1720   13.7700 O   0  0  0  0  0  0  0  0  0  0  0  0
   26.9130   18.9990   12.2380 C   0  0  0  0  0  0  0  0  0  0  0  0
   22.9460   13.2020    7.7430 C   0  0  0  0  0  0  0  0  0  0  0  0
   23.4850   12.1600    7.1400 N   0  0  0  0  0  0  0  0  0  0  0  0
   24.7464    9.1845    8.6779 H   0  0  0  0  0  0  0  0  0  0  0  0
   23.8606    9.4192    7.1330 H   0  0  0  0  0  0  0  0  0  0  0  0
   25.4708    8.6230    7.1330 H   0  0  0  0  0  0  0  0  0  0  0  0
   26.4382   10.7806    8.0367 H   0  0  0  0  0  0  0  0  0  0  0  0
   25.7504   10.8814    6.3582 H   0  0  0  0  0  0  0  0  0  0  0  0
   25.6303   12.8296    9.6024 H   0  0  0  0  0  0  0  0  0  0  0  0
   25.9740   15.3442    8.4444 H   0  0  0  0  0  0  0  0  0  0  0  0
   28.8414   17.4387    7.6616 H   0  0  0  0  0  0  0  0  0  0  0  0
   26.0897   17.9369    6.4339 H   0  0  0  0  0  0  0  0  0  0  0  0
   27.2781   19.1766    7.0087 H   0  0  0  0  0  0  0  0  0  0  0  0
   27.2900   18.8650    4.5253 H   0  0  0  0  0  0  0  0  0  0  0  0
   28.8759   18.5026    5.3249 H   0  0  0  0  0  0  0  0  0  0  0  0
   26.8061   16.4856    4.3521 H   0  0  0  0  0  0  0  0  0  0  0  0
   28.4412   16.8275    3.6465 H   0  0  0  0  0  0  0  0  0  0  0  0
   28.3733   14.7570    5.0439 H   0  0  0  0  0  0  0  0  0  0  0  0
   29.5304   16.0186    5.6389 H   0  0  0  0  0  0  0  0  0  0  0  0
   26.7559   15.4025    6.7524 H   0  0  0  0  0  0  0  0  0  0  0  0
   28.3575   15.0659    7.5276 H   0  0  0  0  0  0  0  0  0  0  0  0
   28.1297   18.9443    9.6001 H   0  0  0  0  0  0  0  0  0  0  0  0
   24.9149   18.5247   14.9480 H   0  0  0  0  0  0  0  0  0  0  0  0
   26.9405   17.2657   15.4130 H   0  0  0  0  0  0  0  0  0  0  0  0
   27.9470   18.7109   15.0646 H   0  0  0  0  0  0  0  0  0  0  0  0
   25.8225   18.4424   17.2497 H   0  0  0  0  0  0  0  0  0  0  0  0
   27.6177   18.5020   17.4718 H   0  0  0  0  0  0  0  0  0  0  0  0
   26.3622   22.0402   15.8205 H   0  0  0  0  0  0  0  0  0  0  0  0
   26.6828   20.0397   11.9662 H   0  0  0  0  0  0  0  0  0  0  0  0
   27.9304   19.0261   12.6554 H   0  0  0  0  0  0  0  0  0  0  0  0
   22.0298   13.7135    7.4129 H   0  0  0  0  0  0  0  0  0  0  0  0
  1  2  1  0
  2  3  1  0
  3  4  2  0
  4  5  1  0
  5  6  1  0
  6  7  2  0
  6  8  2  0
  6  9  1  0
  9 10  1  0
 10 11  2  0
 11 12  1  0
 12 13  1  0
 13 14  1  0
 14 15  1  0
 15 16  1  0
 16 17  1  0
 17 18  1  0
 12 19  2  0
 19 20  1  0
 20 21  2  0
 21 22  1  0
 22 23  2  0
 22 24  1  0
 24 25  1  0
 25 26  1  0
 26 27  1  0
 27 28  1  0
 28 29  2  0
 28 30  1  0
 30 31  1  0
 31 32  2  0
 24 33  1  0
  5 34  1  0
 34 35  2  0
 35  3  1  0
 21 10  1  0
 31 25  1  0
 18 13  1  0
 33 20  1  0
  1 36  1  0
  1 37  1  0
  1 38  1  0
  2 39  1  0
  2 40  1  0
  4 41  1  0
 11 42  1  0
 13 43  1  0
 14 44  1  0
 14 45  1  0
 15 46  1  0
 15 47  1  0
 16 48  1  0
 16 49  1  0
 17 50  1  0
 17 51  1  0
 18 52  1  0
 18 53  1  0
 19 54  1  0
 25 55  1  1
 26 56  1  0
 26 57  1  0
 27 58  1  0
 27 59  1  0
 30 60  1  0
 33 61  1  0
 33 62  1  0
 34 63  1  0
M  END
>  <meeko>  (966) 
{"is_sidechain": [true], "free_energy": -11.04, "intermolecular_energy": 0.0, "internal_energy": -11.04, "cluster_size": 4, "cluster_id": 1, "rank_in_cluster": 1}

>  <_RMSD_MCS_to_ref>  (966) 
0.9812099673362462

$$$$
ligand
     RDKit          3D

 57 61  0  0  0  0  0  0  0  0999 V2000
   24.8540    9.4020    7.6050 C   0  0  0  0  0  0  0  0  0  0  0  0
   25.5230   10.7550    7.4270 C   0  0  0  0  0  0  0  0  0  0  0  0
   25.1240   11.4170    6.1560 C   0  0  0  0  0  0  0  0  0  0  0  0
   25.5870   12.5950    5.6050 C   0  0  0  0  0  0  0  0  0  0  0  0
   24.8600   12.7390    4.4590 N   0  0  0  0  0  0  0  0  0  0  0  0
   25.1020   13.9090    3.2780 S   0  0  0  0  0  6  0  0  0  0  0  0
   26.4980   13.8100    2.8980 O   0  0  0  0  0  0  0  0  0  0  0  0
   24.0270   13.7350    2.3190 O   0  0  0  0  0  0  0  0  0  0  0  0
   24.8490   15.4340    4.1380 C   0  0  0  0  0  0  0  0  0  0  0  0
   24.0250   16.4160    3.5820 C   0  0  0  0  0  0  0  0  0  0  0  0
   23.8200   17.6060    4.2760 C   0  0  0  0  0  0  0  0  0  0  0  0
   24.4410   17.8140    5.5120 C   0  0  0  0  0  0  0  0  0  0  0  0
   25.2860   16.8390    6.0670 C   0  0  0  0  0  0  0  0  0  0  0  0
   25.9330   17.0490    7.3790 C   0  0  0  0  0  0  0  0  0  0  0  0
   27.2110   17.4690    7.4270 C   0  0  0  0  0  0  0  0  0  0  0  0
   27.7920   17.6450    8.7830 C   0  0  0  0  0  0  0  0  0  0  0  0
   27.1880   17.4290    9.9110 N   0  0  0  0  0  0  0  0  0  0  0  0
   25.8880   17.0000    9.8230 C   0  0  0  0  0  0  0  0  0  0  0  0
   24.9600   16.6930   10.8010 C   0  0  0  0  0  0  0  0  0  0  0  0
   25.1130   16.7450   12.2400 C   0  0  0  0  0  0  0  0  0  0  0  0
   25.1670   15.7280   12.9260 O   0  0  0  0  0  0  0  0  0  0  0  0
   25.1880   18.0050   12.7780 N   0  0  0  0  0  0  0  0  0  0  0  0
   25.2190   18.2400   14.2090 C   0  0  1  0  0  0  0  0  0  0  0  0
   26.3050   17.4170   14.8960 C   0  0  0  0  0  0  0  0  0  0  0  0
   26.3000   17.7110   16.3880 C   0  0  0  0  0  0  0  0  0  0  0  0
   26.4650   19.1890   16.6550 C   0  0  0  0  0  0  0  0  0  0  0  0
   27.0600   19.6190   17.6380 O   0  0  0  0  0  0  0  0  0  0  0  0
   25.8820   20.0430   15.7540 N   0  0  0  0  0  0  0  0  0  0  0  0
   25.4730   19.7280   14.4800 C   0  0  0  0  0  0  0  0  0  0  0  0
   25.3100   20.6070   13.6360 O   0  0  0  0  0  0  0  0  0  0  0  0
   23.8110   16.3140   10.0830 C   0  0  0  0  0  0  0  0  0  0  0  0
   23.9720   16.3660    8.7610 N   0  0  0  0  0  0  0  0  0  0  0  0
   25.2510   16.8020    8.5890 N   0  0  0  0  0  0  0  0  0  0  0  0
   25.4920   15.6460    5.3620 C   0  0  0  0  0  0  0  0  0  0  0  0
   24.0490   11.6600    4.3070 C   0  0  0  0  0  0  0  0  0  0  0  0
   24.1700   10.8460    5.3360 N   0  0  0  0  0  0  0  0  0  0  0  0
   24.7464    9.1845    8.6779 H   0  0  0  0  0  0  0  0  0  0  0  0
   23.8606    9.4192    7.1330 H   0  0  0  0  0  0  0  0  0  0  0  0
   25.4708    8.6230    7.1330 H   0  0  0  0  0  0  0  0  0  0  0  0
   25.2390   11.4039    8.2686 H   0  0  0  0  0  0  0  0  0  0  0  0
   26.6104   10.5922    7.3957 H   0  0  0  0  0  0  0  0  0  0  0  0
   26.3649   13.2651    5.9998 H   0  0  0  0  0  0  0  0  0  0  0  0
   23.5435   16.2510    2.6068 H   0  0  0  0  0  0  0  0  0  0  0  0
   23.1684   18.3839    3.8513 H   0  0  0  0  0  0  0  0  0  0  0  0
   24.2653   18.7535    6.0565 H   0  0  0  0  0  0  0  0  0  0  0  0
   27.7918   17.6703    6.5148 H   0  0  0  0  0  0  0  0  0  0  0  0
   28.8346   17.9918    8.8359 H   0  0  0  0  0  0  0  0  0  0  0  0
   25.2236   18.8143   12.1419 H   0  0  0  0  0  0  0  0  0  0  0  0
   24.2449   17.9340   14.6183 H   0  0  0  0  0  0  0  0  0  0  0  0
   26.1114   16.3465   14.7331 H   0  0  0  0  0  0  0  0  0  0  0  0
   27.2859   17.6818   14.4745 H   0  0  0  0  0  0  0  0  0  0  0  0
   25.3449   17.3735   16.8169 H   0  0  0  0  0  0  0  0  0  0  0  0
   27.1434   17.1775   16.8506 H   0  0  0  0  0  0  0  0  0  0  0  0
   25.7365   21.0151   16.0619 H   0  0  0  0  0  0  0  0  0  0  0  0
   22.8719   16.0051   10.5654 H   0  0  0  0  0  0  0  0  0  0  0  0
   26.1606   14.8746    5.7718 H   0  0  0  0  0  0  0  0  0  0  0  0
   23.3851   11.4898    3.4466 H   0  0  0  0  0  0  0  0  0  0  0  0
  1  2  1  0
  2  3  1  0
  3  4  2  0
  4  5  1  0
  5  6  1  0
  6  7  2  0
  6  8  2  0
  6  9  1  0
  9 10  2  0
 10 11  1  0
 11 12  2  0
 12 13  1  0
 13 14  1  0
 14 15  2  0
 15 16  1  0
 16 17  2  0
 17 18  1  0
 18 19  2  0
 19 20  1  0
 20 21  2  0
 20 22  1  0
 22 23  1  0
 23 24  1  0
 24 25  1  0
 25 26  1  0
 26 27  2  0
 26 28  1  0
 28 29  1  0
 29 30  2  0
 19 31  1  0
 31 32  2  0
 32 33  1  0
 13 34  2  0
  5 35  1  0
 35 36  2  0
 36  3  1  0
 34  9  1  0
 33 14  1  0
 33 18  1  0
 29 23  1  0
  1 37  1  0
  1 38  1  0
  1 39  1  0
  2 40  1  0
  2 41  1  0
  4 42  1  0
 10 43  1  0
 11 44  1  0
 12 45  1  0
 15 46  1  0
 16 47  1  0
 22 48  1  0
 23 49  1  1
 24 50  1  0
 24 51  1  0
 25 52  1  0
 25 53  1  0
 28 54  1  0
 31 55  1  0
 34 56  1  0
 35 57  1  0
M  END
>  <meeko>  (967) 
{"is_sidechain": [true], "free_energy": -11.04, "intermolecular_energy": 0.0, "internal_energy": -11.04, "cluster_size": 20, "cluster_id": 1, "rank_in_cluster": 1}

>  <_RMSD_MCS_to_ref>  (967) 
0.785933698080046

$$$$
ligand
     RDKit          3D

 61 66  0  0  0  0  0  0  0  0999 V2000
   24.8540    9.4020    7.6050 C   0  0  0  0  0  0  0  0  0  0  0  0
   25.5230   10.7550    7.4270 C   0  0  0  0  0  0  0  0  0  0  0  0
   25.0070   11.4870    6.2380 C   0  0  0  0  0  0  0  0  0  0  0  0
   25.4110   12.7020    5.7210 C   0  0  0  0  0  0  0  0  0  0  0  0
   24.6260   12.8720    4.6180 N   0  0  0  0  0  0  0  0  0  0  0  0
   24.5530   14.2610    3.6620 S   0  0  0  0  0  6  0  0  0  0  0  0
   23.6740   15.1350    4.4210 O   0  0  0  0  0  0  0  0  0  0  0  0
   24.1460   13.7960    2.3450 O   0  0  0  0  0  0  0  0  0  0  0  0
   26.1450   14.9360    3.5720 C   0  0  0  0  0  0  0  0  0  0  0  0
   26.8290   14.7900    2.4160 C   0  0  0  0  0  0  0  0  0  0  0  0
   28.1370   15.4030    2.2740 C   0  0  0  0  0  0  0  0  0  0  0  0
   28.6640   16.1500    3.2580 C   0  0  0  0  0  0  0  0  0  0  0  0
   27.9480   16.3300    4.4730 C   0  0  0  0  0  0  0  0  0  0  0  0
   28.2510   17.0610    5.5210 N   0  0  0  0  0  0  0  0  0  0  0  0
   27.2420   16.8440    6.4140 C   0  0  0  0  0  0  0  0  0  0  0  0
   26.2970   15.9650    5.9190 C   0  0  0  0  0  0  0  0  0  0  0  0
   25.2020   15.4000    6.4930 N   0  0  0  0  0  0  0  0  0  0  0  0
   24.7770   15.5460    7.8350 C   0  0  0  0  0  0  0  0  0  0  0  0
   23.6650   14.8440    8.3560 C   0  0  0  0  0  0  0  0  0  0  0  0
   23.2510   15.0130    9.6810 C   0  0  0  0  0  0  0  0  0  0  0  0
   23.9670   15.8950   10.4620 C   0  0  0  0  0  0  0  0  0  0  0  0
   25.0690   16.5960    9.9820 C   0  0  0  0  0  0  0  0  0  0  0  0
   25.4860   16.4290    8.6720 C   0  0  0  0  0  0  0  0  0  0  0  0
   25.6410   17.4440   11.0670 C   0  0  0  0  0  0  0  0  0  0  0  0
   24.6970   17.2530   12.1590 N   0  0  0  0  0  0  0  0  0  0  0  0
   24.9820   17.7430   13.5030 C   0  0  1  0  0  0  0  0  0  0  0  0
   25.9730   16.8740   14.2780 C   0  0  0  0  0  0  0  0  0  0  0  0
   26.1480   17.4400   15.6790 C   0  0  0  0  0  0  0  0  0  0  0  0
   26.6000   18.8810   15.6360 C   0  0  0  0  0  0  0  0  0  0  0  0
   27.1850   19.4100   16.5760 O   0  0  0  0  0  0  0  0  0  0  0  0
   26.2470   19.6040   14.5260 N   0  0  0  0  0  0  0  0  0  0  0  0
   25.4520   19.2060   13.4750 C   0  0  0  0  0  0  0  0  0  0  0  0
   25.0680   20.0260   12.6420 O   0  0  0  0  0  0  0  0  0  0  0  0
   23.7630   16.2680   11.8660 C   0  0  0  0  0  0  0  0  0  0  0  0
   22.9290   15.7750   12.5990 O   0  0  0  0  0  0  0  0  0  0  0  0
   26.7190   15.6710    4.6220 N   0  0  0  0  0  0  0  0  0  0  0  0
   23.7290   11.8540    4.5490 C   0  0  0  0  0  0  0  0  0  0  0  0
   23.9590   10.9740    5.4990 N   0  0  0  0  0  0  0  0  0  0  0  0
   24.7464    9.1845    8.6779 H   0  0  0  0  0  0  0  0  0  0  0  0
   23.8606    9.4192    7.1330 H   0  0  0  0  0  0  0  0  0  0  0  0
   25.4708    8.6230    7.1330 H   0  0  0  0  0  0  0  0  0  0  0  0
   25.3371   11.3626    8.3249 H   0  0  0  0  0  0  0  0  0  0  0  0
   26.5987   10.5818    7.2755 H   0  0  0  0  0  0  0  0  0  0  0  0
   26.1874   13.3777    6.1092 H   0  0  0  0  0  0  0  0  0  0  0  0
   26.3971   14.2099    1.5872 H   0  0  0  0  0  0  0  0  0  0  0  0
   28.7063   15.2532    1.3448 H   0  0  0  0  0  0  0  0  0  0  0  0
   29.6485   16.6220    3.1240 H   0  0  0  0  0  0  0  0  0  0  0  0
   27.1874   17.3122    7.4079 H   0  0  0  0  0  0  0  0  0  0  0  0
   24.6206   14.8030    5.8877 H   0  0  0  0  0  0  0  0  0  0  0  0
   23.1138   14.1499    7.7046 H   0  0  0  0  0  0  0  0  0  0  0  0
   22.3876   14.4636   10.0844 H   0  0  0  0  0  0  0  0  0  0  0  0
   26.3591   16.9786    8.2905 H   0  0  0  0  0  0  0  0  0  0  0  0
   26.6474   17.1008   11.3489 H   0  0  0  0  0  0  0  0  0  0  0  0
   25.7629   18.4980   10.7768 H   0  0  0  0  0  0  0  0  0  0  0  0
   24.0280   17.6831   14.0473 H   0  0  0  0  0  0  0  0  0  0  0  0
   25.5880   15.8456   14.3424 H   0  0  0  0  0  0  0  0  0  0  0  0
   26.9428   16.8679   13.7588 H   0  0  0  0  0  0  0  0  0  0  0  0
   25.1874   17.3815   16.2118 H   0  0  0  0  0  0  0  0  0  0  0  0
   26.9175   16.8500   16.1984 H   0  0  0  0  0  0  0  0  0  0  0  0
   26.6223   20.5616   14.4718 H   0  0  0  0  0  0  0  0  0  0  0  0
   22.9238   11.7766    3.8036 H   0  0  0  0  0  0  0  0  0  0  0  0
  1  2  1  0
  2  3  1  0
  3  4  2  0
  4  5  1  0
  5  6  1  0
  6  7  2  0
  6  8  2  0
  6  9  1  0
  9 10  2  0
 10 11  1  0
 11 12  2  0
 12 13  1  0
 13 14  2  0
 14 15  1  0
 15 16  2  0
 16 17  1  0
 17 18  1  0
 18 19  2  0
 19 20  1  0
 20 21  2  0
 21 22  1  0
 22 23  2  0
 22 24  1  0
 24 25  1  0
 25 26  1  0
 26 27  1  0
 27 28  1  0
 28 29  1  0
 29 30  2  0
 29 31  1  0
 31 32  1  0
 32 33  2  0
 25 34  1  0
 34 35  2  0
 16 36  1  0
  5 37  1  0
 37 38  2  0
 38  3  1  0
 36  9  1  0
 36 13  1  0
 23 18  1  0
 32 26  1  0
 34 21  1  0
  1 39  1  0
  1 40  1  0
  1 41  1  0
  2 42  1  0
  2 43  1  0
  4 44  1  0
 10 45  1  0
 11 46  1  0
 12 47  1  0
 15 48  1  0
 17 49  1  0
 19 50  1  0
 20 51  1  0
 23 52  1  0
 24 53  1  0
 24 54  1  0
 26 55  1  1
 27 56  1  0
 27 57  1  0
 28 58  1  0
 28 59  1  0
 31 60  1  0
 37 61  1  0
M  END
>  <meeko>  (968) 
{"is_sidechain": [true], "free_energy": -11.04, "intermolecular_energy": 0.0, "internal_energy": -11.04, "cluster_size": 9, "cluster_id": 1, "rank_in_cluster": 1}

>  <_RMSD_MCS_to_ref>  (968) 
1.3736883036393501

$$$$
ligand
     RDKit          3D

 53 57  0  0  0  0  0  0  0  0999 V2000
   24.8540    9.4020    7.6050 C   0  0  0  0  0  0  0  0  0  0  0  0
   25.5230   10.7550    7.4270 C   0  0  0  0  0  0  0  0  0  0  0  0
   24.9530   11.5180    6.2830 C   0  0  0  0  0  0  0  0  0  0  0  0
   25.1120   12.8530    5.9640 C   0  0  0  0  0  0  0  0  0  0  0  0
   24.3810   13.0100    4.8210 N   0  0  0  0  0  0  0  0  0  0  0  0
   24.1580   14.4630    3.9950 S   0  0  0  0  0  6  0  0  0  0  0  0
   25.1580   14.4120    2.9410 O   0  0  0  0  0  0  0  0  0  0  0  0
   22.7470   14.5290    3.6620 O   0  0  0  0  0  0  0  0  0  0  0  0
   24.5560   15.7010    4.9690 O   0  0  0  0  0  0  0  0  0  0  0  0
   25.8200   16.0490    5.2440 C   0  0  0  0  0  0  0  0  0  0  0  0
   26.7160   16.1570    4.2670 N   0  0  0  0  0  0  0  0  0  0  0  0
   27.8050   16.5250    4.9590 N   0  0  0  0  0  0  0  0  0  0  0  0
   27.6870   16.6750    6.2870 N   0  0  0  0  0  0  0  0  0  0  0  0
   26.3870   16.3820    6.5030 C   0  0  0  0  0  0  0  0  0  0  0  0
   25.7970   16.4280    7.8450 C   0  0  0  0  0  0  0  0  0  0  0  0
   24.5520   15.8150    8.1250 C   0  0  0  0  0  0  0  0  0  0  0  0
   23.9900   15.8610    9.4060 C   0  0  0  0  0  0  0  0  0  0  0  0
   24.6950   16.5270   10.3890 C   0  0  0  0  0  0  0  0  0  0  0  0
   25.9160   17.1440   10.1450 C   0  0  0  0  0  0  0  0  0  0  0  0
   26.4780   17.1050    8.8790 C   0  0  0  0  0  0  0  0  0  0  0  0
   26.4160   17.8000   11.3900 C   0  0  0  0  0  0  0  0  0  0  0  0
   25.4140   17.4130   12.3750 N   0  0  0  0  0  0  0  0  0  0  0  0
   25.3160   18.0130   13.7000 C   0  0  1  0  0  0  0  0  0  0  0  0
   26.2960   17.3960   14.6940 C   0  0  0  0  0  0  0  0  0  0  0  0
   26.0730   18.0080   16.0690 C   0  0  0  0  0  0  0  0  0  0  0  0
   26.1900   19.5130   16.0210 C   0  0  0  0  0  0  0  0  0  0  0  0
   26.6770   20.1640   16.9410 O   0  0  0  0  0  0  0  0  0  0  0  0
   25.7070   20.1310   14.8950 N   0  0  0  0  0  0  0  0  0  0  0  0
   25.5320   19.5360   13.6670 C   0  0  0  0  0  0  0  0  0  0  0  0
   25.5630   20.2120   12.6410 O   0  0  0  0  0  0  0  0  0  0  0  0
   24.3490   16.7360   11.7990 C   0  0  0  0  0  0  0  0  0  0  0  0
   23.3160   16.3720   12.3260 O   0  0  0  0  0  0  0  0  0  0  0  0
   23.8040   11.8270    4.4910 C   0  0  0  0  0  0  0  0  0  0  0  0
   24.1360   10.8940    5.3600 N   0  0  0  0  0  0  0  0  0  0  0  0
   24.7464    9.1845    8.6779 H   0  0  0  0  0  0  0  0  0  0  0  0
   23.8606    9.4192    7.1330 H   0  0  0  0  0  0  0  0  0  0  0  0
   25.4708    8.6230    7.1330 H   0  0  0  0  0  0  0  0  0  0  0  0
   25.3862   11.3417    8.3474 H   0  0  0  0  0  0  0  0  0  0  0  0
   26.5888   10.5799    7.2186 H   0  0  0  0  0  0  0  0  0  0  0  0
   25.6932   13.6138    6.5056 H   0  0  0  0  0  0  0  0  0  0  0  0
   28.7048   16.6875    4.4848 H   0  0  0  0  0  0  0  0  0  0  0  0
   24.0155   15.2920    7.3196 H   0  0  0  0  0  0  0  0  0  0  0  0
   23.0225   15.3842    9.6218 H   0  0  0  0  0  0  0  0  0  0  0  0
   27.4428   17.5956    8.6825 H   0  0  0  0  0  0  0  0  0  0  0  0
   27.4115   17.4221   11.6661 H   0  0  0  0  0  0  0  0  0  0  0  0
   26.5379   18.8889   11.2932 H   0  0  0  0  0  0  0  0  0  0  0  0
   24.2901   17.8029   14.0369 H   0  0  0  0  0  0  0  0  0  0  0  0
   26.1320   16.3095   14.7448 H   0  0  0  0  0  0  0  0  0  0  0  0
   27.3268   17.5952   14.3658 H   0  0  0  0  0  0  0  0  0  0  0  0
   25.0676   17.7372   16.4238 H   0  0  0  0  0  0  0  0  0  0  0  0
   26.8424   17.6199   16.7526 H   0  0  0  0  0  0  0  0  0  0  0  0
   25.4537   21.1260   14.9762 H   0  0  0  0  0  0  0  0  0  0  0  0
   23.1508   11.6691    3.6202 H   0  0  0  0  0  0  0  0  0  0  0  0
  1  2  1  0
  2  3  1  0
  3  4  2  0
  4  5  1  0
  5  6  1  0
  6  7  2  0
  6  8  2  0
  6  9  1  0
  9 10  1  0
 10 11  2  0
 11 12  1  0
 12 13  1  0
 13 14  2  0
 14 15  1  0
 15 16  2  0
 16 17  1  0
 17 18  2  0
 18 19  1  0
 19 20  2  0
 19 21  1  0
 21 22  1  0
 22 23  1  0
 23 24  1  0
 24 25  1  0
 25 26  1  0
 26 27  2  0
 26 28  1  0
 28 29  1  0
 29 30  2  0
 22 31  1  0
 31 32  2  0
  5 33  1  0
 33 34  2  0
 34  3  1  0
 14 10  1  0
 20 15  1  0
 29 23  1  0
 31 18  1  0
  1 35  1  0
  1 36  1  0
  1 37  1  0
  2 38  1  0
  2 39  1  0
  4 40  1  0
 12 41  1  0
 16 42  1  0
 17 43  1  0
 20 44  1  0
 21 45  1  0
 21 46  1  0
 23 47  1  1
 24 48  1  0
 24 49  1  0
 25 50  1  0
 25 51  1  0
 28 52  1  0
 33 53  1  0
M  END
>  <meeko>  (969) 
{"is_sidechain": [true], "free_energy": -11.04, "intermolecular_energy": 0.0, "internal_energy": -11.04, "cluster_size": 9, "cluster_id": 1, "rank_in_cluster": 1}

>  <_RMSD_MCS_to_ref>  (969) 
1.0654353309537106

$$$$
ligand
     RDKit          3D

 49 52  0  0  0  0  0  0  0  0999 V2000
   24.8710    9.6160    7.7820 C   0  0  0  0  0  0  0  0  0  0  0  0
   25.4240   10.9650    7.3490 C   0  0  0  0  0  0  0  0  0  0  0  0
   26.5280   11.4310    8.2320 C   0  0  0  0  0  0  0  0  0  0  0  0
   27.5160   12.3580    7.9720 C   0  0  0  0  0  0  0  0  0  0  0  0
   28.2700   12.3720    9.1120 N   0  0  0  0  0  0  0  0  0  0  0  0
   29.4800   13.4840    9.4750 S   0  0  0  0  0  6  0  0  0  0  0  0
   30.3650   13.4790    8.3210 O   0  0  0  0  0  0  0  0  0  0  0  0
   29.9610   13.1090   10.7900 O   0  0  0  0  0  0  0  0  0  0  0  0
   28.7520   14.9450    9.5770 O   0  0  0  0  0  0  0  0  0  0  0  0
   27.5280   15.1900    9.1010 C   0  0  0  0  0  0  0  0  0  0  0  0
   27.1190   14.9270    7.8140 N   0  0  0  0  0  0  0  0  0  0  0  0
   25.8360   15.2510    7.5570 N   0  0  0  0  0  0  0  0  0  0  0  0
   25.3650   15.7370    8.7160 C   0  0  0  0  0  0  0  0  0  0  0  0
   24.0890   16.2290    9.0350 C   0  0  0  0  0  0  0  0  0  0  0  0
   23.9600   16.6590   10.3770 C   0  0  0  0  0  0  0  0  0  0  0  0
   25.0260   16.5930   11.3410 C   0  0  0  0  0  0  0  0  0  0  0  0
   24.8100   17.0680   12.7390 C   0  0  0  0  0  0  0  0  0  0  0  0
   23.7430   16.8620   13.3070 O   0  0  0  0  0  0  0  0  0  0  0  0
   25.8420   17.7710   13.3180 N   0  0  0  0  0  0  0  0  0  0  0  0
   25.6760   18.4140   14.6160 C   0  0  1  0  0  0  0  0  0  0  0  0
   26.6280   17.8520   15.6660 C   0  0  0  0  0  0  0  0  0  0  0  0
   26.4290   18.5930   16.9780 C   0  0  0  0  0  0  0  0  0  0  0  0
   26.6050   20.0820   16.7990 C   0  0  0  0  0  0  0  0  0  0  0  0
   27.0790   20.8010   17.6750 O   0  0  0  0  0  0  0  0  0  0  0  0
   26.1770   20.6140   15.6090 N   0  0  0  0  0  0  0  0  0  0  0  0
   25.9420   19.9130   14.4520 C   0  0  0  0  0  0  0  0  0  0  0  0
   25.9370   20.4740   13.3570 O   0  0  0  0  0  0  0  0  0  0  0  0
   26.3220   16.1130   11.0320 C   0  0  0  0  0  0  0  0  0  0  0  0
   26.4100   15.7000    9.7070 C   0  0  0  0  0  0  0  0  0  0  0  0
   27.7010   11.5510   10.0310 C   0  0  0  0  0  0  0  0  0  0  0  0
   26.6540   10.9410    9.5170 N   0  0  0  0  0  0  0  0  0  0  0  0
   24.8497    9.5640    8.8806 H   0  0  0  0  0  0  0  0  0  0  0  0
   23.8507    9.4948    7.3893 H   0  0  0  0  0  0  0  0  0  0  0  0
   25.5127    8.8135    7.3893 H   0  0  0  0  0  0  0  0  0  0  0  0
   25.8057   10.8777    6.3210 H   0  0  0  0  0  0  0  0  0  0  0  0
   24.6081   11.7001    7.4127 H   0  0  0  0  0  0  0  0  0  0  0  0
   27.6633   12.9503    7.0568 H   0  0  0  0  0  0  0  0  0  0  0  0
   27.7424   14.5160    7.1046 H   0  0  0  0  0  0  0  0  0  0  0  0
   23.2649   16.2759    8.3080 H   0  0  0  0  0  0  0  0  0  0  0  0
   22.9910   17.0663   10.7011 H   0  0  0  0  0  0  0  0  0  0  0  0
   26.7446   17.8439   12.8272 H   0  0  0  0  0  0  0  0  0  0  0  0
   24.6498   18.2234   14.9633 H   0  0  0  0  0  0  0  0  0  0  0  0
   26.4204   16.7819   15.8140 H   0  0  0  0  0  0  0  0  0  0  0  0
   27.6663   17.9803   15.3260 H   0  0  0  0  0  0  0  0  0  0  0  0
   25.4135   18.3945   17.3512 H   0  0  0  0  0  0  0  0  0  0  0  0
   27.1835   18.2378   17.6954 H   0  0  0  0  0  0  0  0  0  0  0  0
   26.0176   21.6312   15.5810 H   0  0  0  0  0  0  0  0  0  0  0  0
   27.1545   16.0720   11.7499 H   0  0  0  0  0  0  0  0  0  0  0  0
   28.0638   11.4146   11.0605 H   0  0  0  0  0  0  0  0  0  0  0  0
  1  2  1  0
  2  3  1  0
  3  4  2  0
  4  5  1  0
  5  6  1  0
  6  7  2  0
  6  8  2  0
  6  9  1  0
  9 10  1  0
 10 11  1  0
 11 12  1  0
 12 13  2  0
 13 14  1  0
 14 15  2  0
 15 16  1  0
 16 17  1  0
 17 18  2  0
 17 19  1  0
 19 20  1  0
 20 21  1  0
 21 22  1  0
 22 23  1  0
 23 24  2  0
 23 25  1  0
 25 26  1  0
 26 27  2  0
 16 28  2  0
 28 29  1  0
  5 30  1  0
 30 31  2  0
 31  3  1  0
 29 10  2  0
 29 13  1  0
 26 20  1  0
  1 32  1  0
  1 33  1  0
  1 34  1  0
  2 35  1  0
  2 36  1  0
  4 37  1  0
 11 38  1  0
 14 39  1  0
 15 40  1  0
 19 41  1  0
 20 42  1  1
 21 43  1  0
 21 44  1  0
 22 45  1  0
 22 46  1  0
 25 47  1  0
 28 48  1  0
 30 49  1  0
M  END
>  <meeko>  (970) 
{"is_sidechain": [true], "free_energy": -11.04, "intermolecular_energy": 0.0, "internal_energy": -11.04, "cluster_size": 17, "cluster_id": 1, "rank_in_cluster": 1}

>  <_RMSD_MCS_to_ref>  (970) 
0.9134881863859361

$$$$
ligand
     RDKit          3D

 58 62  0  0  0  0  0  0  0  0999 V2000
   24.8540    9.4020    7.6050 C   0  0  0  0  0  0  0  0  0  0  0  0
   25.5230   10.7550    7.4270 C   0  0  0  0  0  0  0  0  0  0  0  0
   27.0060   10.6430    7.3650 C   0  0  0  0  0  0  0  0  0  0  0  0
   27.9160   11.4830    6.7540 C   0  0  0  0  0  0  0  0  0  0  0  0
   29.1280   10.9100    7.0130 N   0  0  0  0  0  0  0  0  0  0  0  0
   30.6240   11.6410    6.7680 S   0  0  0  0  0  6  0  0  0  0  0  0
   30.6040   12.0730    5.3840 O   0  0  0  0  0  0  0  0  0  0  0  0
   31.6150   10.7240    7.2940 O   0  0  0  0  0  0  0  0  0  0  0  0
   30.5780   13.0740    7.8200 C   0  0  0  0  0  0  0  0  0  0  0  0
   31.7580   13.5040    8.4330 C   0  0  0  0  0  0  0  0  0  0  0  0
   31.7470   14.6390    9.2510 C   0  0  0  0  0  0  0  0  0  0  0  0
   30.5460   15.3470    9.4290 C   0  0  0  0  0  0  0  0  0  0  0  0
   30.3110   16.4560   10.1910 N   0  0  0  0  0  0  0  0  0  0  0  0
   29.0370   16.7250   10.0190 C   0  0  0  0  0  0  0  0  0  0  0  0
   28.4100   15.8300    9.1760 N   0  0  0  0  0  0  0  0  0  0  0  0
   27.0560   15.8890    8.7500 C   0  0  0  0  0  0  0  0  0  0  0  0
   26.7620   15.6680    7.3930 C   0  0  0  0  0  0  0  0  0  0  0  0
   25.4540   15.8070    6.9210 C   0  0  0  0  0  0  0  0  0  0  0  0
   24.4300   16.1780    7.7890 C   0  0  0  0  0  0  0  0  0  0  0  0
   24.7070   16.3950    9.1380 C   0  0  0  0  0  0  0  0  0  0  0  0
   26.0120   16.2370    9.6260 C   0  0  0  0  0  0  0  0  0  0  0  0
   26.1730   16.3560   11.0930 C   0  0  0  0  0  0  0  0  0  0  0  0
   26.2940   15.3550   11.7850 O   0  0  0  0  0  0  0  0  0  0  0  0
   26.1930   17.6410   11.5760 N   0  0  0  0  0  0  0  0  0  0  0  0
   26.4330   17.9270   12.9840 C   0  0  2  0  0  0  0  0  0  0  0  0
   25.6220   17.0200   13.9030 C   0  0  0  0  0  0  0  0  0  0  0  0
   25.8910   17.3970   15.3530 C   0  0  0  0  0  0  0  0  0  0  0  0
   25.6020   18.8580   15.6030 C   0  0  0  0  0  0  0  0  0  0  0  0
   25.1830   19.2720   16.6800 O   0  0  0  0  0  0  0  0  0  0  0  0
   25.8640   19.7240   14.5720 N   0  0  0  0  0  0  0  0  0  0  0  0
   26.0440   19.3830   13.2540 C   0  0  0  0  0  0  0  0  0  0  0  0
   25.9100   20.2130   12.3550 O   0  0  0  0  0  0  0  0  0  0  0  0
   29.3850   14.9140    8.7890 C   0  0  0  0  0  0  0  0  0  0  0  0
   29.3610   13.7470    8.0060 C   0  0  0  0  0  0  0  0  0  0  0  0
   28.9410    9.7890    7.7570 C   0  0  0  0  0  0  0  0  0  0  0  0
   27.6590    9.6020    7.9960 N   0  0  0  0  0  0  0  0  0  0  0  0
   24.7464    9.1845    8.6779 H   0  0  0  0  0  0  0  0  0  0  0  0
   23.8606    9.4192    7.1330 H   0  0  0  0  0  0  0  0  0  0  0  0
   25.4708    8.6230    7.1330 H   0  0  0  0  0  0  0  0  0  0  0  0
   25.1622   11.2087    6.4921 H   0  0  0  0  0  0  0  0  0  0  0  0
   25.2665   11.3766    8.2975 H   0  0  0  0  0  0  0  0  0  0  0  0
   27.7112   12.4036    6.1879 H   0  0  0  0  0  0  0  0  0  0  0  0
   32.6949   12.9504    8.2725 H   0  0  0  0  0  0  0  0  0  0  0  0
   32.6686   14.9737    9.7496 H   0  0  0  0  0  0  0  0  0  0  0  0
   28.5243   17.5733   10.4960 H   0  0  0  0  0  0  0  0  0  0  0  0
   27.5664   15.3840    6.6986 H   0  0  0  0  0  0  0  0  0  0  0  0
   25.2323   15.6226    5.8595 H   0  0  0  0  0  0  0  0  0  0  0  0
   23.4043   16.2996    7.4108 H   0  0  0  0  0  0  0  0  0  0  0  0
   23.8984   16.6914    9.8224 H   0  0  0  0  0  0  0  0  0  0  0  0
   26.0341   18.4236   10.9255 H   0  0  0  0  0  0  0  0  0  0  0  0
   27.4978   17.7480   13.1940 H   0  0  0  0  0  0  0  0  0  0  0  0
   24.5505   17.1408   13.6853 H   0  0  0  0  0  0  0  0  0  0  0  0
   25.9139   15.9727   13.7359 H   0  0  0  0  0  0  0  0  0  0  0  0
   25.2492   16.7879   16.0065 H   0  0  0  0  0  0  0  0  0  0  0  0
   26.9536   17.2116   15.5684 H   0  0  0  0  0  0  0  0  0  0  0  0
   25.9321   20.7241   14.8087 H   0  0  0  0  0  0  0  0  0  0  0  0
   28.4272   13.3768    7.5578 H   0  0  0  0  0  0  0  0  0  0  0  0
   29.7473    9.1295    8.1105 H   0  0  0  0  0  0  0  0  0  0  0  0
  1  2  1  0
  2  3  1  0
  3  4  2  0
  4  5  1  0
  5  6  1  0
  6  7  2  0
  6  8  2  0
  6  9  1  0
  9 10  2  0
 10 11  1  0
 11 12  2  0
 12 13  1  0
 13 14  2  0
 14 15  1  0
 15 16  1  0
 16 17  2  0
 17 18  1  0
 18 19  2  0
 19 20  1  0
 20 21  2  0
 21 22  1  0
 22 23  2  0
 22 24  1  0
 24 25  1  0
 25 26  1  0
 26 27  1  0
 27 28  1  0
 28 29  2  0
 28 30  1  0
 30 31  1  0
 31 32  2  0
 15 33  1  0
 33 34  2  0
  5 35  1  0
 35 36  2  0
 36  3  1  0
 34  9  1  0
 33 12  1  0
 21 16  1  0
 31 25  1  0
  1 37  1  0
  1 38  1  0
  1 39  1  0
  2 40  1  0
  2 41  1  0
  4 42  1  0
 10 43  1  0
 11 44  1  0
 14 45  1  0
 17 46  1  0
 18 47  1  0
 19 48  1  0
 20 49  1  0
 24 50  1  0
 25 51  1  1
 26 52  1  0
 26 53  1  0
 27 54  1  0
 27 55  1  0
 30 56  1  0
 34 57  1  0
 35 58  1  0
M  END
>  <meeko>  (971) 
{"is_sidechain": [true], "free_energy": -11.03, "intermolecular_energy": 0.0, "internal_energy": -11.03, "cluster_size": 13, "cluster_id": 1, "rank_in_cluster": 1}

>  <_RMSD_MCS_to_ref>  (971) 
1.9884916114705862

$$$$
ligand
     RDKit          3D

 60 65  0  0  0  0  0  0  0  0999 V2000
   24.8540    9.4020    7.6050 C   0  0  0  0  0  0  0  0  0  0  0  0
   25.5230   10.7550    7.4270 C   0  0  0  0  0  0  0  0  0  0  0  0
   24.9950   11.4920    6.2470 C   0  0  0  0  0  0  0  0  0  0  0  0
   25.1810   12.8150    5.8940 C   0  0  0  0  0  0  0  0  0  0  0  0
   24.4620   12.9580    4.7420 N   0  0  0  0  0  0  0  0  0  0  0  0
   24.4960   14.2970    3.7270 S   0  0  0  0  0  6  0  0  0  0  0  0
   25.2580   13.9030    2.5580 O   0  0  0  0  0  0  0  0  0  0  0  0
   23.1210   14.7560    3.6490 O   0  0  0  0  0  0  0  0  0  0  0  0
   25.4310   15.4940    4.6400 C   0  0  0  0  0  0  0  0  0  0  0  0
   25.2070   15.6230    6.0210 C   0  0  0  0  0  0  0  0  0  0  0  0
   25.8840   16.5790    6.7920 C   0  0  0  0  0  0  0  0  0  0  0  0
   25.6090   16.7100    8.2330 C   0  0  0  0  0  0  0  0  0  0  0  0
   24.4800   16.0750    8.8110 C   0  0  0  0  0  0  0  0  0  0  0  0
   24.1990   16.1830   10.1760 C   0  0  0  0  0  0  0  0  0  0  0  0
   25.0630   16.9370   10.9430 C   0  0  0  0  0  0  0  0  0  0  0  0
   26.1800   17.5730   10.4110 C   0  0  0  0  0  0  0  0  0  0  0  0
   26.4660   17.4680    9.0580 C   0  0  0  0  0  0  0  0  0  0  0  0
   26.9270   18.2850   11.4890 C   0  0  0  0  0  0  0  0  0  0  0  0
   26.0760   18.0750   12.6550 N   0  0  0  0  0  0  0  0  0  0  0  0
   26.4960   18.3700   14.0200 C   0  0  2  0  0  0  0  0  0  0  0  0
   26.0450   17.3030   15.0130 C   0  0  0  0  0  0  0  0  0  0  0  0
   26.5960   17.6320   16.3920 C   0  0  0  0  0  0  0  0  0  0  0  0
   26.1860   19.0200   16.8270 C   0  0  0  0  0  0  0  0  0  0  0  0
   25.9270   19.2930   17.9950 O   0  0  0  0  0  0  0  0  0  0  0  0
   26.1340   19.9800   15.8480 N   0  0  0  0  0  0  0  0  0  0  0  0
   25.9950   19.7430   14.4990 C   0  0  0  0  0  0  0  0  0  0  0  0
   25.4910   20.5940   13.7700 O   0  0  0  0  0  0  0  0  0  0  0  0
   25.0200   17.2180   12.3820 C   0  0  0  0  0  0  0  0  0  0  0  0
   24.2000   16.7690   13.1590 O   0  0  0  0  0  0  0  0  0  0  0  0
   26.8260   17.4140    6.1620 C   0  0  0  0  0  0  0  0  0  0  0  0
   27.0880   17.2900    4.7830 C   0  0  0  0  0  0  0  0  0  0  0  0
   27.9550   17.9610    3.8770 C   0  0  0  0  0  0  0  0  0  0  0  0
   27.7760   17.4000    2.6330 C   0  0  0  0  0  0  0  0  0  0  0  0
   26.8340   16.4150    2.7470 N   0  0  0  0  0  0  0  0  0  0  0  0
   26.3880   16.3330    4.0510 C   0  0  0  0  0  0  0  0  0  0  0  0
   23.9090   11.7630    4.4090 C   0  0  0  0  0  0  0  0  0  0  0  0
   24.2120   10.8490    5.3070 N   0  0  0  0  0  0  0  0  0  0  0  0
   24.7464    9.1845    8.6779 H   0  0  0  0  0  0  0  0  0  0  0  0
   23.8606    9.4192    7.1330 H   0  0  0  0  0  0  0  0  0  0  0  0
   25.4708    8.6230    7.1330 H   0  0  0  0  0  0  0  0  0  0  0  0
   25.3471   11.3587    8.3296 H   0  0  0  0  0  0  0  0  0  0  0  0
   26.5971   10.5820    7.2643 H   0  0  0  0  0  0  0  0  0  0  0  0
   25.7728   13.5782    6.4205 H   0  0  0  0  0  0  0  0  0  0  0  0
   24.4815   14.9566    6.5104 H   0  0  0  0  0  0  0  0  0  0  0  0
   23.8098   15.4836    8.1699 H   0  0  0  0  0  0  0  0  0  0  0  0
   23.3239   15.6866   10.6209 H   0  0  0  0  0  0  0  0  0  0  0  0
   27.3489   17.9689    8.6341 H   0  0  0  0  0  0  0  0  0  0  0  0
   27.9235   17.8443   11.6397 H   0  0  0  0  0  0  0  0  0  0  0  0
   27.1119   19.3463   11.2667 H   0  0  0  0  0  0  0  0  0  0  0  0
   27.5955   18.3808   13.9883 H   0  0  0  0  0  0  0  0  0  0  0  0
   24.9460   17.2796   15.0528 H   0  0  0  0  0  0  0  0  0  0  0  0
   26.4201   16.3200   14.6921 H   0  0  0  0  0  0  0  0  0  0  0  0
   26.2099   16.9001   17.1167 H   0  0  0  0  0  0  0  0  0  0  0  0
   27.6943   17.5910   16.3473 H   0  0  0  0  0  0  0  0  0  0  0  0
   26.2051   20.9627   16.1483 H   0  0  0  0  0  0  0  0  0  0  0  0
   27.3631   18.1711    6.7522 H   0  0  0  0  0  0  0  0  0  0  0  0
   28.6447   18.7810    4.1258 H   0  0  0  0  0  0  0  0  0  0  0  0
   28.2983   17.6922    1.7101 H   0  0  0  0  0  0  0  0  0  0  0  0
   26.5051   15.8208    1.9726 H   0  0  0  0  0  0  0  0  0  0  0  0
   23.2942   11.5839    3.5146 H   0  0  0  0  0  0  0  0  0  0  0  0
  1  2  1  0
  2  3  1  0
  3  4  2  0
  4  5  1  0
  5  6  1  0
  6  7  2  0
  6  8  2  0
  6  9  1  0
  9 10  2  0
 10 11  1  0
 11 12  1  0
 12 13  2  0
 13 14  1  0
 14 15  2  0
 15 16  1  0
 16 17  2  0
 16 18  1  0
 18 19  1  0
 19 20  1  0
 20 21  1  0
 21 22  1  0
 22 23  1  0
 23 24  2  0
 23 25  1  0
 25 26  1  0
 26 27  2  0
 19 28  1  0
 28 29  2  0
 11 30  2  0
 30 31  1  0
 31 32  1  0
 32 33  2  0
 33 34  1  0
 34 35  1  0
  5 36  1  0
 36 37  2  0
 37  3  1  0
 35  9  1  0
 17 12  1  0
 26 20  1  0
 35 31  2  0
 28 15  1  0
  1 38  1  0
  1 39  1  0
  1 40  1  0
  2 41  1  0
  2 42  1  0
  4 43  1  0
 10 44  1  0
 13 45  1  0
 14 46  1  0
 17 47  1  0
 18 48  1  0
 18 49  1  0
 20 50  1  6
 21 51  1  0
 21 52  1  0
 22 53  1  0
 22 54  1  0
 25 55  1  0
 30 56  1  0
 32 57  1  0
 33 58  1  0
 34 59  1  0
 36 60  1  0
M  END
>  <meeko>  (972) 
{"is_sidechain": [true], "free_energy": -11.03, "intermolecular_energy": 0.0, "internal_energy": -11.03, "cluster_size": 20, "cluster_id": 1, "rank_in_cluster": 1}

>  <_RMSD_MCS_to_ref>  (972) 
1.2720736351852167

$$$$
ligand
     RDKit          3D

 47 50  0  0  0  0  0  0  0  0999 V2000
   24.8710    9.6160    7.7820 C   0  0  0  0  0  0  0  0  0  0  0  0
   25.4240   10.9650    7.3490 C   0  0  0  0  0  0  0  0  0  0  0  0
   26.5540   11.4120    8.2080 C   0  0  0  0  0  0  0  0  0  0  0  0
   27.5240   12.3580    7.9460 C   0  0  0  0  0  0  0  0  0  0  0  0
   28.3210   12.3370    9.0560 N   0  0  0  0  0  0  0  0  0  0  0  0
   29.5330   13.4510    9.4170 S   0  0  0  0  0  6  0  0  0  0  0  0
   30.6100   13.1410    8.4950 O   0  0  0  0  0  0  0  0  0  0  0  0
   29.7100   13.3550   10.8540 O   0  0  0  0  0  0  0  0  0  0  0  0
   28.9230   14.9180    9.0510 O   0  0  0  0  0  0  0  0  0  0  0  0
   27.6330   15.2920    9.3670 C   0  0  0  0  0  0  0  0  0  0  0  0
   27.5560   16.1630   10.4900 C   0  0  0  0  0  0  0  0  0  0  0  0
   26.3420   16.6800   11.0030 C   0  0  0  0  0  0  0  0  0  0  0  0
   26.3440   17.5800   12.1710 C   0  0  0  0  0  0  0  0  0  0  0  0
   27.3290   18.2760   12.3940 O   0  0  0  0  0  0  0  0  0  0  0  0
   25.2280   17.5940   12.9720 N   0  0  0  0  0  0  0  0  0  0  0  0
   25.1740   18.3730   14.2000 C   0  0  1  0  0  0  0  0  0  0  0  0
   26.0740   17.7880   15.2850 C   0  0  0  0  0  0  0  0  0  0  0  0
   25.9880   18.6500   16.5350 C   0  0  0  0  0  0  0  0  0  0  0  0
   26.3350   20.0890   16.2330 C   0  0  0  0  0  0  0  0  0  0  0  0
   26.9030   20.8130   17.0460 O   0  0  0  0  0  0  0  0  0  0  0  0
   25.9550   20.5680   15.0050 N   0  0  0  0  0  0  0  0  0  0  0  0
   25.6130   19.8120   13.9100 C   0  0  0  0  0  0  0  0  0  0  0  0
   25.6490   20.2890   12.7780 O   0  0  0  0  0  0  0  0  0  0  0  0
   25.1890   16.2660   10.3110 C   0  0  0  0  0  0  0  0  0  0  0  0
   23.8950   16.5540   10.5110 N   0  0  0  0  0  0  0  0  0  0  0  0
   23.1920   15.8720    9.5350 O   0  0  0  0  0  0  0  0  0  0  0  0
   24.0330   15.1530    8.7080 N   0  0  0  0  0  0  0  0  0  0  0  0
   25.2720   15.3730    9.1600 C   0  0  0  0  0  0  0  0  0  0  0  0
   26.4920   14.8680    8.6650 C   0  0  0  0  0  0  0  0  0  0  0  0
   27.7940   11.4790    9.9650 C   0  0  0  0  0  0  0  0  0  0  0  0
   26.7300   10.8800    9.4700 N   0  0  0  0  0  0  0  0  0  0  0  0
   24.8497    9.5640    8.8806 H   0  0  0  0  0  0  0  0  0  0  0  0
   23.8507    9.4948    7.3893 H   0  0  0  0  0  0  0  0  0  0  0  0
   25.5127    8.8135    7.3893 H   0  0  0  0  0  0  0  0  0  0  0  0
   25.7783   10.8857    6.3107 H   0  0  0  0  0  0  0  0  0  0  0  0
   24.6164   11.7061    7.4413 H   0  0  0  0  0  0  0  0  0  0  0  0
   27.6312   12.9855    7.0489 H   0  0  0  0  0  0  0  0  0  0  0  0
   28.4936   16.4510   10.9879 H   0  0  0  0  0  0  0  0  0  0  0  0
   24.4065   17.0375   12.6957 H   0  0  0  0  0  0  0  0  0  0  0  0
   24.1369   18.3496   14.5659 H   0  0  0  0  0  0  0  0  0  0  0  0
   25.7455   16.7652   15.5217 H   0  0  0  0  0  0  0  0  0  0  0  0
   27.1136   17.7657   14.9261 H   0  0  0  0  0  0  0  0  0  0  0  0
   24.9633   18.6041   16.9324 H   0  0  0  0  0  0  0  0  0  0  0  0
   26.7083   18.2660   17.2724 H   0  0  0  0  0  0  0  0  0  0  0  0
   25.9231   21.5914   14.8933 H   0  0  0  0  0  0  0  0  0  0  0  0
   26.5463   14.1946    7.7969 H   0  0  0  0  0  0  0  0  0  0  0  0
   28.1982   11.3075   10.9736 H   0  0  0  0  0  0  0  0  0  0  0  0
  1  2  1  0
  2  3  1  0
  3  4  2  0
  4  5  1  0
  5  6  1  0
  6  7  2  0
  6  8  2  0
  6  9  1  0
  9 10  1  0
 10 11  1  0
 11 12  2  0
 12 13  1  0
 13 14  2  0
 13 15  1  0
 15 16  1  0
 16 17  1  0
 17 18  1  0
 18 19  1  0
 19 20  2  0
 19 21  1  0
 21 22  1  0
 22 23  2  0
 12 24  1  0
 24 25  2  0
 25 26  1  0
 26 27  1  0
 27 28  2  0
 28 29  1  0
  5 30  1  0
 30 31  2  0
 31  3  1  0
 29 10  2  0
 22 16  1  0
 28 24  1  0
  1 32  1  0
  1 33  1  0
  1 34  1  0
  2 35  1  0
  2 36  1  0
  4 37  1  0
 11 38  1  0
 15 39  1  0
 16 40  1  1
 17 41  1  0
 17 42  1  0
 18 43  1  0
 18 44  1  0
 21 45  1  0
 29 46  1  0
 30 47  1  0
M  END
>  <meeko>  (973) 
{"is_sidechain": [true], "free_energy": -11.03, "intermolecular_energy": 0.0, "internal_energy": -11.03, "cluster_size": 6, "cluster_id": 1, "rank_in_cluster": 1}

>  <_RMSD_MCS_to_ref>  (973) 
0.6684755459667584

$$$$
ligand
     RDKit          3D

 50 53  0  0  0  0  0  0  0  0999 V2000
   24.8710    9.6160    7.7820 C   0  0  0  0  0  0  0  0  0  0  0  0
   25.4240   10.9650    7.3490 C   0  0  0  0  0  0  0  0  0  0  0  0
   26.7830   11.2180    7.9010 C   0  0  0  0  0  0  0  0  0  0  0  0
   27.1430   11.9220    9.0340 C   0  0  0  0  0  0  0  0  0  0  0  0
   28.5030   11.8070    9.0810 N   0  0  0  0  0  0  0  0  0  0  0  0
   29.5250   12.6750   10.1030 S   0  0  0  0  0  6  0  0  0  0  0  0
   30.8670   12.3060    9.6930 O   0  0  0  0  0  0  0  0  0  0  0  0
   29.0270   12.4010   11.4370 O   0  0  0  0  0  0  0  0  0  0  0  0
   29.2750   14.2530    9.7460 O   0  0  0  0  0  0  0  0  0  0  0  0
   28.3360   14.5510    8.7890 C   0  0  0  0  0  0  0  0  0  0  0  0
   28.5740   14.1860    7.4700 C   0  0  0  0  0  0  0  0  0  0  0  0
   27.5940   14.4790    6.5440 C   0  0  0  0  0  0  0  0  0  0  0  0
   26.4270   15.0850    6.8540 N   0  0  0  0  0  0  0  0  0  0  0  0
   26.2000   15.4210    8.1420 C   0  0  0  0  0  0  0  0  0  0  0  0
   25.0190   16.0390    8.5280 C   0  0  0  0  0  0  0  0  0  0  0  0
   24.6860   16.4160    9.7910 N   0  0  0  0  0  0  0  0  0  0  0  0
   25.6110   16.1540   10.7480 C   0  0  0  0  0  0  0  0  0  0  0  0
   25.2630   16.5630   12.1460 C   0  0  0  0  0  0  0  0  0  0  0  0
   24.4400   15.9430   12.8100 O   0  0  0  0  0  0  0  0  0  0  0  0
   25.9280   17.6780   12.6000 N   0  0  0  0  0  0  0  0  0  0  0  0
   25.6200   18.3130   13.8680 C   0  0  1  0  0  0  0  0  0  0  0  0
   26.3360   17.6370   15.0330 C   0  0  0  0  0  0  0  0  0  0  0  0
   25.9880   18.3520   16.3280 C   0  0  0  0  0  0  0  0  0  0  0  0
   26.3160   19.8240   16.2480 C   0  0  0  0  0  0  0  0  0  0  0  0
   26.6850   20.4700   17.2230 O   0  0  0  0  0  0  0  0  0  0  0  0
   26.1490   20.4240   15.0250 N   0  0  0  0  0  0  0  0  0  0  0  0
   26.0350   19.7870   13.8140 C   0  0  0  0  0  0  0  0  0  0  0  0
   26.2390   20.3930   12.7620 O   0  0  0  0  0  0  0  0  0  0  0  0
   26.8260   15.5400   10.4900 C   0  0  0  0  0  0  0  0  0  0  0  0
   27.1300   15.1690    9.1660 C   0  0  0  0  0  0  0  0  0  0  0  0
   28.9320   11.1390    7.9790 C   0  0  0  0  0  0  0  0  0  0  0  0
   27.9070   10.7430    7.2530 N   0  0  0  0  0  0  0  0  0  0  0  0
   24.8497    9.5640    8.8806 H   0  0  0  0  0  0  0  0  0  0  0  0
   23.8507    9.4948    7.3893 H   0  0  0  0  0  0  0  0  0  0  0  0
   25.5127    8.8135    7.3893 H   0  0  0  0  0  0  0  0  0  0  0  0
   25.4773   10.9902    6.2506 H   0  0  0  0  0  0  0  0  0  0  0  0
   24.7517   11.7456    7.7347 H   0  0  0  0  0  0  0  0  0  0  0  0
   26.4849   12.4534    9.7372 H   0  0  0  0  0  0  0  0  0  0  0  0
   29.5070   13.6832    7.1754 H   0  0  0  0  0  0  0  0  0  0  0  0
   27.7730   14.2037    5.4942 H   0  0  0  0  0  0  0  0  0  0  0  0
   24.2824   16.2432    7.7370 H   0  0  0  0  0  0  0  0  0  0  0  0
   26.6756   18.0789   12.0158 H   0  0  0  0  0  0  0  0  0  0  0  0
   24.5364   18.2206   14.0333 H   0  0  0  0  0  0  0  0  0  0  0  0
   26.0181   16.5860   15.0981 H   0  0  0  0  0  0  0  0  0  0  0  0
   27.4230   17.6830   14.8705 H   0  0  0  0  0  0  0  0  0  0  0  0
   24.9119   18.2349   16.5238 H   0  0  0  0  0  0  0  0  0  0  0  0
   26.5823   17.9078   17.1401 H   0  0  0  0  0  0  0  0  0  0  0  0
   26.1049   21.4530   15.0146 H   0  0  0  0  0  0  0  0  0  0  0  0
   27.5398   15.3460   11.3042 H   0  0  0  0  0  0  0  0  0  0  0  0
   29.9870   10.9547    7.7282 H   0  0  0  0  0  0  0  0  0  0  0  0
  1  2  1  0
  2  3  1  0
  3  4  2  0
  4  5  1  0
  5  6  1  0
  6  7  2  0
  6  8  2  0
  6  9  1  0
  9 10  1  0
 10 11  2  0
 11 12  1  0
 12 13  2  0
 13 14  1  0
 14 15  2  0
 15 16  1  0
 16 17  2  0
 17 18  1  0
 18 19  2  0
 18 20  1  0
 20 21  1  0
 21 22  1  0
 22 23  1  0
 23 24  1  0
 24 25  2  0
 24 26  1  0
 26 27  1  0
 27 28  2  0
 17 29  1  0
 29 30  2  0
  5 31  1  0
 31 32  2  0
 32  3  1  0
 30 10  1  0
 30 14  1  0
 27 21  1  0
  1 33  1  0
  1 34  1  0
  1 35  1  0
  2 36  1  0
  2 37  1  0
  4 38  1  0
 11 39  1  0
 12 40  1  0
 15 41  1  0
 20 42  1  0
 21 43  1  1
 22 44  1  0
 22 45  1  0
 23 46  1  0
 23 47  1  0
 26 48  1  0
 29 49  1  0
 31 50  1  0
M  END
>  <meeko>  (974) 
{"is_sidechain": [true], "free_energy": -11.03, "intermolecular_energy": 0.0, "internal_energy": -11.03, "cluster_size": 12, "cluster_id": 1, "rank_in_cluster": 1}

>  <_RMSD_MCS_to_ref>  (974) 
1.028886021114314

$$$$
ligand
     RDKit          3D

 51 54  0  0  0  0  0  0  0  0999 V2000
   24.8710    9.6160    7.7820 C   0  0  0  0  0  0  0  0  0  0  0  0
   25.4240   10.9650    7.3490 C   0  0  0  0  0  0  0  0  0  0  0  0
   26.8990   11.0520    7.5300 C   0  0  0  0  0  0  0  0  0  0  0  0
   27.6180   11.7350    8.4910 C   0  0  0  0  0  0  0  0  0  0  0  0
   28.9210   11.4520    8.1980 N   0  0  0  0  0  0  0  0  0  0  0  0
   30.2740   12.2240    8.8490 S   0  0  0  0  0  6  0  0  0  0  0  0
   30.1620   12.0390   10.2840 O   0  0  0  0  0  0  0  0  0  0  0  0
   31.3940   11.6750    8.1070 O   0  0  0  0  0  0  0  0  0  0  0  0
   30.1540   13.8170    8.4830 O   0  0  0  0  0  0  0  0  0  0  0  0
   28.9310   14.4270    8.5520 C   0  0  0  0  0  0  0  0  0  0  0  0
   28.1990   14.5790    7.3720 C   0  0  0  0  0  0  0  0  0  0  0  0
   26.9540   15.2080    7.4080 C   0  0  0  0  0  0  0  0  0  0  0  0
   26.4620   15.6970    8.6230 C   0  0  0  0  0  0  0  0  0  0  0  0
   25.1530   16.3630    8.6920 C   0  0  0  0  0  0  0  0  0  0  0  0
   24.4410   16.5030    7.7070 O   0  0  0  0  0  0  0  0  0  0  0  0
   24.7320   16.8520   10.0120 C   0  0  0  0  0  0  0  0  0  0  0  0
   25.5430   16.6690   11.0630 C   0  0  0  0  0  0  0  0  0  0  0  0
   25.0830   17.1820   12.3920 C   0  0  0  0  0  0  0  0  0  0  0  0
   23.9090   17.1790   12.7370 O   0  0  0  0  0  0  0  0  0  0  0  0
   26.0990   17.6670   13.1750 N   0  0  0  0  0  0  0  0  0  0  0  0
   25.8450   18.3530   14.4320 C   0  0  1  0  0  0  0  0  0  0  0  0
   26.6770   17.7850   15.5770 C   0  0  0  0  0  0  0  0  0  0  0  0
   26.3890   18.5700   16.8490 C   0  0  0  0  0  0  0  0  0  0  0  0
   26.6360   20.0470   16.6500 C   0  0  0  0  0  0  0  0  0  0  0  0
   27.0630   20.7690   17.5440 O   0  0  0  0  0  0  0  0  0  0  0  0
   26.3290   20.5600   15.4140 N   0  0  0  0  0  0  0  0  0  0  0  0
   26.1830   19.8360   14.2580 C   0  0  0  0  0  0  0  0  0  0  0  0
   26.3110   20.3660   13.1540 O   0  0  0  0  0  0  0  0  0  0  0  0
   26.7770   16.0380   11.0060 O   0  0  0  0  0  0  0  0  0  0  0  0
   27.2090   15.5660    9.7920 C   0  0  0  0  0  0  0  0  0  0  0  0
   28.4530   14.9360    9.7600 C   0  0  0  0  0  0  0  0  0  0  0  0
   28.9700   10.6860    7.0780 C   0  0  0  0  0  0  0  0  0  0  0  0
   27.7550   10.4120    6.6540 N   0  0  0  0  0  0  0  0  0  0  0  0
   24.8497    9.5640    8.8806 H   0  0  0  0  0  0  0  0  0  0  0  0
   23.8507    9.4948    7.3893 H   0  0  0  0  0  0  0  0  0  0  0  0
   25.5127    8.8135    7.3893 H   0  0  0  0  0  0  0  0  0  0  0  0
   25.1877   11.1201    6.2859 H   0  0  0  0  0  0  0  0  0  0  0  0
   24.9601   11.7383    7.9790 H   0  0  0  0  0  0  0  0  0  0  0  0
   27.2297   12.3633    9.3061 H   0  0  0  0  0  0  0  0  0  0  0  0
   28.6020   14.2048    6.4193 H   0  0  0  0  0  0  0  0  0  0  0  0
   26.3630   15.3187    6.4869 H   0  0  0  0  0  0  0  0  0  0  0  0
   23.7648   17.3611   10.1358 H   0  0  0  0  0  0  0  0  0  0  0  0
   27.0726   17.5415   12.8631 H   0  0  0  0  0  0  0  0  0  0  0  0
   24.7845   18.2126   14.6880 H   0  0  0  0  0  0  0  0  0  0  0  0
   26.4157   16.7277   15.7312 H   0  0  0  0  0  0  0  0  0  0  0  0
   27.7458   17.8653   15.3297 H   0  0  0  0  0  0  0  0  0  0  0  0
   25.3375   18.4177   17.1338 H   0  0  0  0  0  0  0  0  0  0  0  0
   27.0626   18.2087   17.6401 H   0  0  0  0  0  0  0  0  0  0  0  0
   26.1965   21.5794   15.3489 H   0  0  0  0  0  0  0  0  0  0  0  0
   29.0514   14.8414   10.6781 H   0  0  0  0  0  0  0  0  0  0  0  0
   29.8957   10.3426    6.5931 H   0  0  0  0  0  0  0  0  0  0  0  0
  1  2  1  0
  2  3  1  0
  3  4  2  0
  4  5  1  0
  5  6  1  0
  6  7  2  0
  6  8  2  0
  6  9  1  0
  9 10  1  0
 10 11  2  0
 11 12  1  0
 12 13  2  0
 13 14  1  0
 14 15  2  0
 14 16  1  0
 16 17  2  0
 17 18  1  0
 18 19  2  0
 18 20  1  0
 20 21  1  0
 21 22  1  0
 22 23  1  0
 23 24  1  0
 24 25  2  0
 24 26  1  0
 26 27  1  0
 27 28  2  0
 17 29  1  0
 29 30  1  0
 30 31  2  0
  5 32  1  0
 32 33  2  0
 33  3  1  0
 31 10  1  0
 30 13  1  0
 27 21  1  0
  1 34  1  0
  1 35  1  0
  1 36  1  0
  2 37  1  0
  2 38  1  0
  4 39  1  0
 11 40  1  0
 12 41  1  0
 16 42  1  0
 20 43  1  0
 21 44  1  1
 22 45  1  0
 22 46  1  0
 23 47  1  0
 23 48  1  0
 26 49  1  0
 31 50  1  0
 32 51  1  0
M  END
>  <meeko>  (975) 
{"is_sidechain": [true], "free_energy": -11.03, "intermolecular_energy": 0.0, "internal_energy": -11.03, "cluster_size": 19, "cluster_id": 1, "rank_in_cluster": 1}

>  <_RMSD_MCS_to_ref>  (975) 
1.0457768510644236

$$$$
ligand
     RDKit          3D

 53 57  0  0  0  0  0  0  0  0999 V2000
   24.8710    9.6160    7.7820 C   0  0  0  0  0  0  0  0  0  0  0  0
   25.4240   10.9650    7.3490 C   0  0  0  0  0  0  0  0  0  0  0  0
   26.8500   11.1380    7.7400 C   0  0  0  0  0  0  0  0  0  0  0  0
   27.4380   12.1660    8.4510 C   0  0  0  0  0  0  0  0  0  0  0  0
   28.7500   11.8010    8.5440 N   0  0  0  0  0  0  0  0  0  0  0  0
   30.0200   12.7790    9.0720 S   0  0  0  0  0  6  0  0  0  0  0  0
   29.7970   12.9610   10.4930 O   0  0  0  0  0  0  0  0  0  0  0  0
   31.2120   12.1200    8.5730 O   0  0  0  0  0  0  0  0  0  0  0  0
   29.8750   14.2060    8.2880 O   0  0  0  0  0  0  0  0  0  0  0  0
   29.2840   14.3630    7.1030 C   0  0  0  0  0  0  0  0  0  0  0  0
   29.6900   14.1450    5.8020 C   0  0  0  0  0  0  0  0  0  0  0  0
   28.7140   14.5180    4.9360 N   0  0  0  0  0  0  0  0  0  0  0  0
   27.6870   14.9530    5.6450 N   0  0  0  0  0  0  0  0  0  0  0  0
   27.9770   14.8340    6.9690 N   0  0  0  0  0  0  0  0  0  0  0  0
   27.0040   15.2010    7.9490 C   0  0  0  0  0  0  0  0  0  0  0  0
   25.6300   14.9060    7.7880 C   0  0  0  0  0  0  0  0  0  0  0  0
   24.6960   15.2740    8.7650 C   0  0  0  0  0  0  0  0  0  0  0  0
   25.1630   15.9340    9.8830 C   0  0  0  0  0  0  0  0  0  0  0  0
   26.5060   16.2450   10.0640 C   0  0  0  0  0  0  0  0  0  0  0  0
   27.4400   15.8890    9.1050 C   0  0  0  0  0  0  0  0  0  0  0  0
   26.6930   16.9820   11.3490 C   0  0  0  0  0  0  0  0  0  0  0  0
   25.3510   16.9690   11.9190 N   0  0  0  0  0  0  0  0  0  0  0  0
   24.9540   17.7870   13.0590 C   0  0  1  0  0  0  0  0  0  0  0  0
   25.2480   17.1100   14.3930 C   0  0  0  0  0  0  0  0  0  0  0  0
   24.7270   17.9820   15.5270 C   0  0  0  0  0  0  0  0  0  0  0  0
   25.3130   19.3730   15.4580 C   0  0  0  0  0  0  0  0  0  0  0  0
   25.5900   20.0200   16.4640 O   0  0  0  0  0  0  0  0  0  0  0  0
   25.5060   19.8960   14.2050 N   0  0  0  0  0  0  0  0  0  0  0  0
   25.6260   19.1710   13.0420 C   0  0  0  0  0  0  0  0  0  0  0  0
   26.2440   19.6320   12.0840 O   0  0  0  0  0  0  0  0  0  0  0  0
   24.4170   16.4340   11.0420 C   0  0  0  0  0  0  0  0  0  0  0  0
   23.2100   16.3740   11.1750 O   0  0  0  0  0  0  0  0  0  0  0  0
   28.9400   10.6420    7.8610 C   0  0  0  0  0  0  0  0  0  0  0  0
   27.7990   10.2040    7.3730 N   0  0  0  0  0  0  0  0  0  0  0  0
   24.8497    9.5640    8.8806 H   0  0  0  0  0  0  0  0  0  0  0  0
   23.8507    9.4948    7.3893 H   0  0  0  0  0  0  0  0  0  0  0  0
   25.5127    8.8135    7.3893 H   0  0  0  0  0  0  0  0  0  0  0  0
   25.3439   11.0464    6.2549 H   0  0  0  0  0  0  0  0  0  0  0  0
   24.8378   11.7483    7.8518 H   0  0  0  0  0  0  0  0  0  0  0  0
   26.9586   13.0717    8.8508 H   0  0  0  0  0  0  0  0  0  0  0  0
   30.6651   13.7286    5.5090 H   0  0  0  0  0  0  0  0  0  0  0  0
   25.2903   14.3805    6.8833 H   0  0  0  0  0  0  0  0  0  0  0  0
   23.6269   15.0446    8.6450 H   0  0  0  0  0  0  0  0  0  0  0  0
   28.5030   16.1373    9.2404 H   0  0  0  0  0  0  0  0  0  0  0  0
   27.4082   16.4632   12.0043 H   0  0  0  0  0  0  0  0  0  0  0  0
   27.1038   17.9940   11.2181 H   0  0  0  0  0  0  0  0  0  0  0  0
   23.8659   17.9143   12.9599 H   0  0  0  0  0  0  0  0  0  0  0  0
   24.7499   16.1298   14.4250 H   0  0  0  0  0  0  0  0  0  0  0  0
   26.3336   16.9719   14.5041 H   0  0  0  0  0  0  0  0  0  0  0  0
   23.6315   18.0498   15.4537 H   0  0  0  0  0  0  0  0  0  0  0  0
   25.0234   17.5254   16.4829 H   0  0  0  0  0  0  0  0  0  0  0  0
   25.5664   20.9213   14.1279 H   0  0  0  0  0  0  0  0  0  0  0  0
   29.9107   10.1404    7.7338 H   0  0  0  0  0  0  0  0  0  0  0  0
  1  2  1  0
  2  3  1  0
  3  4  2  0
  4  5  1  0
  5  6  1  0
  6  7  2  0
  6  8  2  0
  6  9  1  0
  9 10  1  0
 10 11  2  0
 11 12  1  0
 12 13  2  0
 13 14  1  0
 14 15  1  0
 15 16  2  0
 16 17  1  0
 17 18  2  0
 18 19  1  0
 19 20  2  0
 19 21  1  0
 21 22  1  0
 22 23  1  0
 23 24  1  0
 24 25  1  0
 25 26  1  0
 26 27  2  0
 26 28  1  0
 28 29  1  0
 29 30  2  0
 22 31  1  0
 31 32  2  0
  5 33  1  0
 33 34  2  0
 34  3  1  0
 14 10  1  0
 20 15  1  0
 29 23  1  0
 31 18  1  0
  1 35  1  0
  1 36  1  0
  1 37  1  0
  2 38  1  0
  2 39  1  0
  4 40  1  0
 11 41  1  0
 16 42  1  0
 17 43  1  0
 20 44  1  0
 21 45  1  0
 21 46  1  0
 23 47  1  6
 24 48  1  0
 24 49  1  0
 25 50  1  0
 25 51  1  0
 28 52  1  0
 33 53  1  0
M  END
>  <meeko>  (976) 
{"is_sidechain": [true], "free_energy": -11.03, "intermolecular_energy": 0.0, "internal_energy": -11.03, "cluster_size": 17, "cluster_id": 1, "rank_in_cluster": 1}

>  <_RMSD_MCS_to_ref>  (976) 
1.8783432564067963

$$$$
ligand
     RDKit          3D

 60 64  0  0  0  0  0  0  0  0999 V2000
   24.8540    9.4020    7.6050 C   0  0  0  0  0  0  0  0  0  0  0  0
   25.5230   10.7550    7.4270 C   0  0  0  0  0  0  0  0  0  0  0  0
   24.9870   11.4970    6.2530 C   0  0  0  0  0  0  0  0  0  0  0  0
   25.1500   12.8270    5.9190 C   0  0  0  0  0  0  0  0  0  0  0  0
   24.4390   12.9730    4.7600 N   0  0  0  0  0  0  0  0  0  0  0  0
   24.5550   14.2740    3.7070 S   0  0  0  0  0  6  0  0  0  0  0  0
   23.3030   14.9990    3.7990 O   0  0  0  0  0  0  0  0  0  0  0  0
   25.0880   13.7570    2.4640 O   0  0  0  0  0  0  0  0  0  0  0  0
   25.7980   15.3700    4.3600 C   0  0  0  0  0  0  0  0  0  0  0  0
   25.6780   15.9010    5.6300 O   0  0  0  0  0  0  0  0  0  0  0  0
   26.7500   16.7220    5.8750 C   0  0  0  0  0  0  0  0  0  0  0  0
   26.8380   17.4040    7.1590 C   0  0  0  0  0  0  0  0  0  0  0  0
   27.4490   18.4570    7.2940 O   0  0  0  0  0  0  0  0  0  0  0  0
   26.1570   16.7290    8.1580 N   0  0  0  0  0  0  0  0  0  0  0  0
   26.0150   17.0790    9.5130 C   0  0  0  0  0  0  0  0  0  0  0  0
   26.8860   17.9240   10.1980 C   0  0  0  0  0  0  0  0  0  0  0  0
   26.6710   18.2190   11.5500 C   0  0  0  0  0  0  0  0  0  0  0  0
   25.5820   17.6750   12.2430 C   0  0  0  0  0  0  0  0  0  0  0  0
   25.3580   18.0350   13.7020 C   0  0  1  0  0  0  0  0  0  0  0  0
   26.2990   17.2190   14.5960 C   0  0  0  0  0  0  0  0  0  0  0  0
   26.0300   17.5380   16.0570 C   0  0  0  0  0  0  0  0  0  0  0  0
   26.1770   19.0150   16.3240 C   0  0  0  0  0  0  0  0  0  0  0  0
   26.4620   19.4560   17.4340 O   0  0  0  0  0  0  0  0  0  0  0  0
   25.9120   19.8560   15.2730 N   0  0  0  0  0  0  0  0  0  0  0  0
   25.5050   19.5270   14.0000 C   0  0  0  0  0  0  0  0  0  0  0  0
   25.2290   20.4200   13.2020 O   0  0  0  0  0  0  0  0  0  0  0  0
   24.7060   16.8310   11.5490 C   0  0  0  0  0  0  0  0  0  0  0  0
   24.9240   16.5350   10.1980 C   0  0  0  0  0  0  0  0  0  0  0  0
   27.5690   16.7220    4.7670 C   0  0  0  0  0  0  0  0  0  0  0  0
   26.9690   15.8620    3.8090 C   0  0  0  0  0  0  0  0  0  0  0  0
   27.5710   15.6280    2.4670 C   0  0  0  0  0  0  0  0  0  0  0  0
   28.9440   16.0690    2.4160 O   0  0  0  0  0  0  0  0  0  0  0  0
   29.1250   17.3870    2.9670 C   0  0  0  0  0  0  0  0  0  0  0  0
   28.8600   17.4060    4.4850 C   0  0  0  0  0  0  0  0  0  0  0  0
   23.9280   11.7660    4.4010 C   0  0  0  0  0  0  0  0  0  0  0  0
   24.2350   10.8480    5.2940 N   0  0  0  0  0  0  0  0  0  0  0  0
   24.7464    9.1845    8.6779 H   0  0  0  0  0  0  0  0  0  0  0  0
   23.8606    9.4192    7.1330 H   0  0  0  0  0  0  0  0  0  0  0  0
   25.4708    8.6230    7.1330 H   0  0  0  0  0  0  0  0  0  0  0  0
   25.3542   11.3556    8.3329 H   0  0  0  0  0  0  0  0  0  0  0  0
   26.5957   10.5815    7.2559 H   0  0  0  0  0  0  0  0  0  0  0  0
   25.7216   13.5943    6.4617 H   0  0  0  0  0  0  0  0  0  0  0  0
   25.6932   15.8553    7.8710 H   0  0  0  0  0  0  0  0  0  0  0  0
   27.7479   18.3621    9.6734 H   0  0  0  0  0  0  0  0  0  0  0  0
   27.3680   18.8882   12.0758 H   0  0  0  0  0  0  0  0  0  0  0  0
   24.3108   17.7823   13.9245 H   0  0  0  0  0  0  0  0  0  0  0  0
   26.1305   16.1464   14.4198 H   0  0  0  0  0  0  0  0  0  0  0  0
   27.3410   17.4761   14.3550 H   0  0  0  0  0  0  0  0  0  0  0  0
   25.0058   17.2269   16.3104 H   0  0  0  0  0  0  0  0  0  0  0  0
   26.7615   16.9959   16.6743 H   0  0  0  0  0  0  0  0  0  0  0  0
   26.0330   20.8616   15.4604 H   0  0  0  0  0  0  0  0  0  0  0  0
   23.8396   16.3971   12.0696 H   0  0  0  0  0  0  0  0  0  0  0  0
   24.2287   15.8665    9.6691 H   0  0  0  0  0  0  0  0  0  0  0  0
   27.5332   14.5520    2.2416 H   0  0  0  0  0  0  0  0  0  0  0  0
   26.9968   16.2051    1.7272 H   0  0  0  0  0  0  0  0  0  0  0  0
   30.1588   17.7135    2.7805 H   0  0  0  0  0  0  0  0  0  0  0  0
   28.4068   18.0650    2.4828 H   0  0  0  0  0  0  0  0  0  0  0  0
   29.6748   16.8828    5.0069 H   0  0  0  0  0  0  0  0  0  0  0  0
   28.8105   18.4468    4.8376 H   0  0  0  0  0  0  0  0  0  0  0  0
   23.3393   11.5813    3.4903 H   0  0  0  0  0  0  0  0  0  0  0  0
  1  2  1  0
  2  3  1  0
  3  4  2  0
  4  5  1  0
  5  6  1  0
  6  7  2  0
  6  8  2  0
  6  9  1  0
  9 10  1  0
 10 11  1  0
 11 12  1  0
 12 13  2  0
 12 14  1  0
 14 15  1  0
 15 16  2  0
 16 17  1  0
 17 18  2  0
 18 19  1  0
 19 20  1  0
 20 21  1  0
 21 22  1  0
 22 23  2  0
 22 24  1  0
 24 25  1  0
 25 26  2  0
 18 27  1  0
 27 28  2  0
 11 29  2  0
 29 30  1  0
 30 31  1  0
 31 32  1  0
 32 33  1  0
 33 34  1  0
  5 35  1  0
 35 36  2  0
 36  3  1  0
 30  9  2  0
 28 15  1  0
 34 29  1  0
 25 19  1  0
  1 37  1  0
  1 38  1  0
  1 39  1  0
  2 40  1  0
  2 41  1  0
  4 42  1  0
 14 43  1  0
 16 44  1  0
 17 45  1  0
 19 46  1  1
 20 47  1  0
 20 48  1  0
 21 49  1  0
 21 50  1  0
 24 51  1  0
 27 52  1  0
 28 53  1  0
 31 54  1  0
 31 55  1  0
 33 56  1  0
 33 57  1  0
 34 58  1  0
 34 59  1  0
 35 60  1  0
M  END
>  <meeko>  (977) 
{"is_sidechain": [true], "free_energy": -11.02, "intermolecular_energy": 0.0, "internal_energy": -11.02, "cluster_size": 3, "cluster_id": 2, "rank_in_cluster": 1}

>  <_RMSD_MCS_to_ref>  (977) 
1.1097900702385106

$$$$
ligand
     RDKit          3D

 55 59  0  0  0  0  0  0  0  0999 V2000
   24.8540    9.4020    7.6050 C   0  0  0  0  0  0  0  0  0  0  0  0
   25.5230   10.7550    7.4270 C   0  0  0  0  0  0  0  0  0  0  0  0
   25.4290   11.2460    6.0250 C   0  0  0  0  0  0  0  0  0  0  0  0
   26.3580   11.9560    5.2920 C   0  0  0  0  0  0  0  0  0  0  0  0
   25.7440   12.1720    4.0900 N   0  0  0  0  0  0  0  0  0  0  0  0
   26.2690   13.2350    2.8870 S   0  0  0  0  0  6  0  0  0  0  0  0
   27.7030   13.0190    2.8000 O   0  0  0  0  0  0  0  0  0  0  0  0
   25.4050   12.9560    1.7550 O   0  0  0  0  0  0  0  0  0  0  0  0
   25.9710   14.7650    3.3920 O   0  0  0  0  0  0  0  0  0  0  0  0
   26.6510   15.2450    4.4890 C   0  0  0  0  0  0  0  0  0  0  0  0
   27.9560   15.7200    4.3380 C   0  0  0  0  0  0  0  0  0  0  0  0
   28.6560   16.1920    5.4360 C   0  0  0  0  0  0  0  0  0  0  0  0
   28.0570   16.2080    6.6990 C   0  0  0  0  0  0  0  0  0  0  0  0
   26.7200   15.7620    6.8800 C   0  0  0  0  0  0  0  0  0  0  0  0
   26.0310   15.3020    5.7570 C   0  0  0  0  0  0  0  0  0  0  0  0
   24.4260   14.8430    6.1600 S   0  0  0  0  0  0  0  0  0  0  0  0
   24.6390   15.1860    7.8250 C   0  0  0  0  0  0  0  0  0  0  0  0
   23.6880   15.0070    8.8490 C   0  0  0  0  0  0  0  0  0  0  0  0
   24.0290   15.3420   10.1630 C   0  0  0  0  0  0  0  0  0  0  0  0
   25.2890   15.8600   10.4550 C   0  0  0  0  0  0  0  0  0  0  0  0
   25.6970   16.2250   11.8400 C   0  0  0  0  0  0  0  0  0  0  0  0
   25.9340   15.3520   12.6670 O   0  0  0  0  0  0  0  0  0  0  0  0
   25.8240   17.5680   12.1160 N   0  0  0  0  0  0  0  0  0  0  0  0
   26.3660   18.0250   13.3890 C   0  0  2  0  0  0  0  0  0  0  0  0
   25.7320   17.3100   14.5770 C   0  0  0  0  0  0  0  0  0  0  0  0
   26.3140   17.8620   15.8700 C   0  0  0  0  0  0  0  0  0  0  0  0
   26.1360   19.3590   15.9560 C   0  0  0  0  0  0  0  0  0  0  0  0
   25.9480   19.9420   17.0190 O   0  0  0  0  0  0  0  0  0  0  0  0
   26.2260   20.0570   14.7770 N   0  0  0  0  0  0  0  0  0  0  0  0
   26.1040   19.5290   13.5170 C   0  0  0  0  0  0  0  0  0  0  0  0
   25.8150   20.2380   12.5520 O   0  0  0  0  0  0  0  0  0  0  0  0
   26.2300   16.0220    9.4270 C   0  0  0  0  0  0  0  0  0  0  0  0
   25.9140   15.6850    8.0840 C   0  0  0  0  0  0  0  0  0  0  0  0
   24.4970   11.6330    4.1270 C   0  0  0  0  0  0  0  0  0  0  0  0
   24.2810   11.0440    5.2840 N   0  0  0  0  0  0  0  0  0  0  0  0
   24.7464    9.1845    8.6779 H   0  0  0  0  0  0  0  0  0  0  0  0
   23.8606    9.4192    7.1330 H   0  0  0  0  0  0  0  0  0  0  0  0
   25.4708    8.6230    7.1330 H   0  0  0  0  0  0  0  0  0  0  0  0
   25.0338   11.4827    8.0912 H   0  0  0  0  0  0  0  0  0  0  0  0
   26.5885   10.6413    7.6754 H   0  0  0  0  0  0  0  0  0  0  0  0
   27.3634   12.2753    5.6039 H   0  0  0  0  0  0  0  0  0  0  0  0
   28.4288   15.7192    3.3448 H   0  0  0  0  0  0  0  0  0  0  0  0
   29.6870   16.5556    5.3138 H   0  0  0  0  0  0  0  0  0  0  0  0
   28.6291   16.5712    7.5655 H   0  0  0  0  0  0  0  0  0  0  0  0
   22.6892   14.6085    8.6175 H   0  0  0  0  0  0  0  0  0  0  0  0
   23.2977   15.1956   10.9715 H   0  0  0  0  0  0  0  0  0  0  0  0
   25.5313   18.2603   11.4117 H   0  0  0  0  0  0  0  0  0  0  0  0
   27.4430   17.8013   13.4012 H   0  0  0  0  0  0  0  0  0  0  0  0
   24.6442   17.4731   14.5654 H   0  0  0  0  0  0  0  0  0  0  0  0
   25.9416   16.2322   14.5110 H   0  0  0  0  0  0  0  0  0  0  0  0
   25.8034   17.3908   16.7228 H   0  0  0  0  0  0  0  0  0  0  0  0
   27.3909   17.6385   15.8896 H   0  0  0  0  0  0  0  0  0  0  0  0
   26.4011   21.0697   14.8450 H   0  0  0  0  0  0  0  0  0  0  0  0
   27.2288   16.4165    9.6651 H   0  0  0  0  0  0  0  0  0  0  0  0
   23.7690   11.6822    3.3039 H   0  0  0  0  0  0  0  0  0  0  0  0
  1  2  1  0
  2  3  1  0
  3  4  2  0
  4  5  1  0
  5  6  1  0
  6  7  2  0
  6  8  2  0
  6  9  1  0
  9 10  1  0
 10 11  2  0
 11 12  1  0
 12 13  2  0
 13 14  1  0
 14 15  2  0
 15 16  1  0
 16 17  1  0
 17 18  2  0
 18 19  1  0
 19 20  2  0
 20 21  1  0
 21 22  2  0
 21 23  1  0
 23 24  1  0
 24 25  1  0
 25 26  1  0
 26 27  1  0
 27 28  2  0
 27 29  1  0
 29 30  1  0
 30 31  2  0
 20 32  1  0
 32 33  2  0
  5 34  1  0
 34 35  2  0
 35  3  1  0
 15 10  1  0
 33 17  1  0
 33 14  1  0
 30 24  1  0
  1 36  1  0
  1 37  1  0
  1 38  1  0
  2 39  1  0
  2 40  1  0
  4 41  1  0
 11 42  1  0
 12 43  1  0
 13 44  1  0
 18 45  1  0
 19 46  1  0
 23 47  1  0
 24 48  1  6
 25 49  1  0
 25 50  1  0
 26 51  1  0
 26 52  1  0
 29 53  1  0
 32 54  1  0
 34 55  1  0
M  END
>  <meeko>  (978) 
{"is_sidechain": [true], "free_energy": -11.02, "intermolecular_energy": 0.0, "internal_energy": -11.02, "cluster_size": 5, "cluster_id": 2, "rank_in_cluster": 1}

>  <_RMSD_MCS_to_ref>  (978) 
1.4328574791498123

$$$$
ligand
     RDKit          3D

 61 65  0  0  0  0  0  0  0  0999 V2000
   24.8540    9.4020    7.6050 C   0  0  0  0  0  0  0  0  0  0  0  0
   25.5230   10.7550    7.4270 C   0  0  0  0  0  0  0  0  0  0  0  0
   25.1350   11.4100    6.1470 C   0  0  0  0  0  0  0  0  0  0  0  0
   25.8780   11.5740    4.9950 C   0  0  0  0  0  0  0  0  0  0  0  0
   25.0280   12.2120    4.1370 N   0  0  0  0  0  0  0  0  0  0  0  0
   25.4430   12.8640    2.6460 S   0  0  0  0  0  6  0  0  0  0  0  0
   26.3940   11.9390    2.0590 O   0  0  0  0  0  0  0  0  0  0  0  0
   24.1910   13.2050    1.9990 O   0  0  0  0  0  0  0  0  0  0  0  0
   26.2920   14.3590    3.0680 C   0  0  0  0  0  0  0  0  0  0  0  0
   27.0540   15.0220    2.1000 C   0  0  0  0  0  0  0  0  0  0  0  0
   27.7180   16.2010    2.4390 C   0  0  0  0  0  0  0  0  0  0  0  0
   27.6250   16.7060    3.7360 C   0  0  0  0  0  0  0  0  0  0  0  0
   26.8960   16.0140    4.7100 C   0  0  0  0  0  0  0  0  0  0  0  0
   26.2170   14.8440    4.3770 C   0  0  0  0  0  0  0  0  0  0  0  0
   26.7990   16.4300    6.0120 O   0  0  0  0  0  0  0  0  0  0  0  0
   27.7750   17.4360    6.3240 C   0  0  2  0  0  0  0  0  0  0  0  0
   27.4120   18.0910    7.6630 C   0  0  0  0  0  0  0  0  0  0  0  0
   27.6540   19.2710    7.8930 O   0  0  0  0  0  0  0  0  0  0  0  0
   26.8530   17.1800    8.5480 N   0  0  0  0  0  0  0  0  0  0  0  0
   26.4650   17.3960    9.8830 C   0  0  0  0  0  0  0  0  0  0  0  0
   25.4140   16.7270   10.5090 C   0  0  0  0  0  0  0  0  0  0  0  0
   25.0850   17.0070   11.8410 C   0  0  0  0  0  0  0  0  0  0  0  0
   25.7990   17.9660   12.5740 C   0  0  0  0  0  0  0  0  0  0  0  0
   25.4380   18.2270   14.0270 C   0  0  1  0  0  0  0  0  0  0  0  0
   26.3330   17.3910   14.9480 C   0  0  0  0  0  0  0  0  0  0  0  0
   25.9250   17.6050   16.3970 C   0  0  0  0  0  0  0  0  0  0  0  0
   25.9840   19.0660   16.7660 C   0  0  0  0  0  0  0  0  0  0  0  0
   26.1610   19.4460   17.9200 O   0  0  0  0  0  0  0  0  0  0  0  0
   25.7660   19.9620   15.7500 N   0  0  0  0  0  0  0  0  0  0  0  0
   25.5000   19.7020   14.4260 C   0  0  0  0  0  0  0  0  0  0  0  0
   25.2750   20.6340   13.6570 O   0  0  0  0  0  0  0  0  0  0  0  0
   26.8580   18.6300   11.9440 C   0  0  0  0  0  0  0  0  0  0  0  0
   27.1820   18.3510   10.6120 C   0  0  0  0  0  0  0  0  0  0  0  0
   27.8510   18.4790    5.2170 C   0  0  0  0  0  0  0  0  0  0  0  0
   28.2860   17.8790    3.9880 O   0  0  0  0  0  0  0  0  0  0  0  0
   23.8540   12.4580    4.7740 C   0  0  0  0  0  0  0  0  0  0  0  0
   23.8830   11.9720    5.9980 N   0  0  0  0  0  0  0  0  0  0  0  0
   24.7464    9.1845    8.6779 H   0  0  0  0  0  0  0  0  0  0  0  0
   23.8606    9.4192    7.1330 H   0  0  0  0  0  0  0  0  0  0  0  0
   25.4708    8.6230    7.1330 H   0  0  0  0  0  0  0  0  0  0  0  0
   25.2297   11.4079    8.2623 H   0  0  0  0  0  0  0  0  0  0  0  0
   26.6110   10.5940    7.4079 H   0  0  0  0  0  0  0  0  0  0  0  0
   26.9166   11.2623    4.8104 H   0  0  0  0  0  0  0  0  0  0  0  0
   27.1289   14.6169    1.0800 H   0  0  0  0  0  0  0  0  0  0  0  0
   28.3151   16.7326    1.6834 H   0  0  0  0  0  0  0  0  0  0  0  0
   25.6283   14.3077    5.1358 H   0  0  0  0  0  0  0  0  0  0  0  0
   28.7660   16.9656    6.4057 H   0  0  0  0  0  0  0  0  0  0  0  0
   26.7038   16.2286    8.1826 H   0  0  0  0  0  0  0  0  0  0  0  0
   24.8385   15.9730    9.9519 H   0  0  0  0  0  0  0  0  0  0  0  0
   24.2546   16.4670   12.3193 H   0  0  0  0  0  0  0  0  0  0  0  0
   24.3864   17.9255   14.1418 H   0  0  0  0  0  0  0  0  0  0  0  0
   26.2268   16.3264   14.6923 H   0  0  0  0  0  0  0  0  0  0  0  0
   27.3800   17.7016   14.8162 H   0  0  0  0  0  0  0  0  0  0  0  0
   24.8972   17.2396   16.5388 H   0  0  0  0  0  0  0  0  0  0  0  0
   26.6235   17.0525   17.0426 H   0  0  0  0  0  0  0  0  0  0  0  0
   25.8068   20.9571   16.0126 H   0  0  0  0  0  0  0  0  0  0  0  0
   27.4408   19.3781   12.5014 H   0  0  0  0  0  0  0  0  0  0  0  0
   28.0118   18.8898   10.1312 H   0  0  0  0  0  0  0  0  0  0  0  0
   26.8557   18.9236    5.0700 H   0  0  0  0  0  0  0  0  0  0  0  0
   28.5743   19.2546    5.5090 H   0  0  0  0  0  0  0  0  0  0  0  0
   22.9988   12.9887    4.3301 H   0  0  0  0  0  0  0  0  0  0  0  0
  1  2  1  0
  2  3  1  0
  3  4  2  0
  4  5  1  0
  5  6  1  0
  6  7  2  0
  6  8  2  0
  6  9  1  0
  9 10  2  0
 10 11  1  0
 11 12  2  0
 12 13  1  0
 13 14  2  0
 13 15  1  0
 15 16  1  0
 16 17  1  0
 17 18  2  0
 17 19  1  0
 19 20  1  0
 20 21  2  0
 21 22  1  0
 22 23  2  0
 23 24  1  0
 24 25  1  0
 25 26  1  0
 26 27  1  0
 27 28  2  0
 27 29  1  0
 29 30  1  0
 30 31  2  0
 23 32  1  0
 32 33  2  0
 16 34  1  0
 34 35  1  0
  5 36  1  0
 36 37  2  0
 37  3  1  0
 14  9  1  0
 33 20  1  0
 35 12  1  0
 30 24  1  0
  1 38  1  0
  1 39  1  0
  1 40  1  0
  2 41  1  0
  2 42  1  0
  4 43  1  0
 10 44  1  0
 11 45  1  0
 14 46  1  0
 16 47  1  1
 19 48  1  0
 21 49  1  0
 22 50  1  0
 24 51  1  6
 25 52  1  0
 25 53  1  0
 26 54  1  0
 26 55  1  0
 29 56  1  0
 32 57  1  0
 33 58  1  0
 34 59  1  0
 34 60  1  0
 36 61  1  0
M  END
>  <meeko>  (979) 
{"is_sidechain": [true], "free_energy": -11.02, "intermolecular_energy": 0.0, "internal_energy": -11.02, "cluster_size": 20, "cluster_id": 1, "rank_in_cluster": 1}

>  <_RMSD_MCS_to_ref>  (979) 
1.0787432502685694

$$$$
ligand
     RDKit          3D

 63 68  0  0  0  0  0  0  0  0999 V2000
   24.8540    9.4020    7.6050 C   0  0  0  0  0  0  0  0  0  0  0  0
   25.5230   10.7550    7.4270 C   0  0  0  0  0  0  0  0  0  0  0  0
   24.9980   11.4900    6.2450 C   0  0  0  0  0  0  0  0  0  0  0  0
   25.1840   12.8130    5.8920 C   0  0  0  0  0  0  0  0  0  0  0  0
   24.4670   12.9560    4.7390 N   0  0  0  0  0  0  0  0  0  0  0  0
   24.4810   14.2960    3.7250 S   0  0  0  0  0  6  0  0  0  0  0  0
   25.3280   13.9270    2.6070 O   0  0  0  0  0  0  0  0  0  0  0  0
   23.0970   14.6900    3.5510 O   0  0  0  0  0  0  0  0  0  0  0  0
   25.3040   15.5420    4.6790 C   0  0  0  0  0  0  0  0  0  0  0  0
   25.0710   15.6290    6.0550 C   0  0  0  0  0  0  0  0  0  0  0  0
   25.7170   16.6100    6.8220 C   0  0  0  0  0  0  0  0  0  0  0  0
   25.4760   16.7110    8.2730 C   0  0  0  0  0  0  0  0  0  0  0  0
   24.3980   16.0130    8.8740 C   0  0  0  0  0  0  0  0  0  0  0  0
   24.1490   16.0930   10.2480 C   0  0  0  0  0  0  0  0  0  0  0  0
   24.9930   16.8820   11.0000 C   0  0  0  0  0  0  0  0  0  0  0  0
   26.0640   17.5780   10.4450 C   0  0  0  0  0  0  0  0  0  0  0  0
   26.3170   17.5020    9.0850 C   0  0  0  0  0  0  0  0  0  0  0  0
   26.8000   18.3160   11.5130 C   0  0  0  0  0  0  0  0  0  0  0  0
   25.9930   18.0520   12.6970 N   0  0  0  0  0  0  0  0  0  0  0  0
   26.4360   18.3480   14.0540 C   0  0  2  0  0  0  0  0  0  0  0  0
   25.9660   17.3050   15.0630 C   0  0  0  0  0  0  0  0  0  0  0  0
   26.5410   17.6320   16.4330 C   0  0  0  0  0  0  0  0  0  0  0  0
   26.1750   19.0350   16.8580 C   0  0  0  0  0  0  0  0  0  0  0  0
   25.9350   19.3260   18.0260 O   0  0  0  0  0  0  0  0  0  0  0  0
   26.1390   19.9860   15.8700 N   0  0  0  0  0  0  0  0  0  0  0  0
   25.9790   19.7400   14.5250 C   0  0  0  0  0  0  0  0  0  0  0  0
   25.4920   20.5970   13.7920 O   0  0  0  0  0  0  0  0  0  0  0  0
   24.9740   17.1460   12.4420 C   0  0  0  0  0  0  0  0  0  0  0  0
   24.1960   16.6500   13.2340 O   0  0  0  0  0  0  0  0  0  0  0  0
   26.6030   17.4960    6.1760 C   0  0  0  0  0  0  0  0  0  0  0  0
   26.8450   17.4020    4.7960 C   0  0  0  0  0  0  0  0  0  0  0  0
   27.7390   18.2950    4.1390 N   0  0  0  0  0  0  0  0  0  0  0  0
   28.9980   18.0340    3.6420 C   0  0  0  0  0  0  0  0  0  0  0  0
   29.4720   19.2060    3.1030 C   0  0  0  0  0  0  0  0  0  0  0  0
   28.4430   20.1310    3.3160 C   0  0  0  0  0  0  0  0  0  0  0  0
   27.3960   19.5950    3.9420 N   0  0  0  0  0  0  0  0  0  0  0  0
   26.1940   16.4110    4.0470 C   0  0  0  0  0  0  0  0  0  0  0  0
   23.9220   11.7590    4.4020 C   0  0  0  0  0  0  0  0  0  0  0  0
   24.2170   10.8470    5.3050 N   0  0  0  0  0  0  0  0  0  0  0  0
   24.7464    9.1845    8.6779 H   0  0  0  0  0  0  0  0  0  0  0  0
   23.8606    9.4192    7.1330 H   0  0  0  0  0  0  0  0  0  0  0  0
   25.4708    8.6230    7.1330 H   0  0  0  0  0  0  0  0  0  0  0  0
   25.3445   11.3598    8.3283 H   0  0  0  0  0  0  0  0  0  0  0  0
   26.5975   10.5821    7.2674 H   0  0  0  0  0  0  0  0  0  0  0  0
   25.7747   13.5764    6.4194 H   0  0  0  0  0  0  0  0  0  0  0  0
   24.3778   14.9248    6.5384 H   0  0  0  0  0  0  0  0  0  0  0  0
   23.7419   15.3938    8.2446 H   0  0  0  0  0  0  0  0  0  0  0  0
   23.3128   15.5479   10.7102 H   0  0  0  0  0  0  0  0  0  0  0  0
   27.1621   18.0508    8.6438 H   0  0  0  0  0  0  0  0  0  0  0  0
   27.8213   17.9256   11.6336 H   0  0  0  0  0  0  0  0  0  0  0  0
   26.9234   19.3877   11.2982 H   0  0  0  0  0  0  0  0  0  0  0  0
   27.5349   18.3266   14.0096 H   0  0  0  0  0  0  0  0  0  0  0  0
   24.8672   17.3134   15.1146 H   0  0  0  0  0  0  0  0  0  0  0  0
   26.3099   16.3086   14.7486 H   0  0  0  0  0  0  0  0  0  0  0  0
   26.1423   16.9185   17.1692 H   0  0  0  0  0  0  0  0  0  0  0  0
   27.6372   17.5595   16.3772 H   0  0  0  0  0  0  0  0  0  0  0  0
   26.2405   20.9692   16.1596 H   0  0  0  0  0  0  0  0  0  0  0  0
   27.1133   18.2740    6.7628 H   0  0  0  0  0  0  0  0  0  0  0  0
   29.5246   17.0687    3.6713 H   0  0  0  0  0  0  0  0  0  0  0  0
   30.4421   19.3785    2.6140 H   0  0  0  0  0  0  0  0  0  0  0  0
   28.4933   21.1838    3.0014 H   0  0  0  0  0  0  0  0  0  0  0  0
   26.3840   16.3194    2.9674 H   0  0  0  0  0  0  0  0  0  0  0  0
   23.3184   11.5765    3.5007 H   0  0  0  0  0  0  0  0  0  0  0  0
  1  2  1  0
  2  3  1  0
  3  4  2  0
  4  5  1  0
  5  6  1  0
  6  7  2  0
  6  8  2  0
  6  9  1  0
  9 10  2  0
 10 11  1  0
 11 12  1  0
 12 13  2  0
 13 14  1  0
 14 15  2  0
 15 16  1  0
 16 17  2  0
 16 18  1  0
 18 19  1  0
 19 20  1  0
 20 21  1  0
 21 22  1  0
 22 23  1  0
 23 24  2  0
 23 25  1  0
 25 26  1  0
 26 27  2  0
 19 28  1  0
 28 29  2  0
 11 30  2  0
 30 31  1  0
 31 32  1  0
 32 33  1  0
 33 34  2  0
 34 35  1  0
 35 36  2  0
 31 37  2  0
  5 38  1  0
 38 39  2  0
 39  3  1  0
 37  9  1  0
 17 12  1  0
 26 20  1  0
 36 32  1  0
 28 15  1  0
  1 40  1  0
  1 41  1  0
  1 42  1  0
  2 43  1  0
  2 44  1  0
  4 45  1  0
 10 46  1  0
 13 47  1  0
 14 48  1  0
 17 49  1  0
 18 50  1  0
 18 51  1  0
 20 52  1  6
 21 53  1  0
 21 54  1  0
 22 55  1  0
 22 56  1  0
 25 57  1  0
 30 58  1  0
 33 59  1  0
 34 60  1  0
 35 61  1  0
 37 62  1  0
 38 63  1  0
M  END
>  <meeko>  (980) 
{"is_sidechain": [true], "free_energy": -11.02, "intermolecular_energy": 0.0, "internal_energy": -11.02, "cluster_size": 17, "cluster_id": 1, "rank_in_cluster": 1}

>  <_RMSD_MCS_to_ref>  (980) 
1.2439173784638762

$$$$
ligand
     RDKit          3D

 56 60  0  0  0  0  0  0  0  0999 V2000
   24.8710    9.6160    7.7820 C   0  0  0  0  0  0  0  0  0  0  0  0
   25.4240   10.9650    7.3490 C   0  0  0  0  0  0  0  0  0  0  0  0
   24.9600   11.3540    5.9900 C   0  0  0  0  0  0  0  0  0  0  0  0
   24.4470   12.5620    5.5610 C   0  0  0  0  0  0  0  0  0  0  0  0
   24.1790   12.3580    4.2370 N   0  0  0  0  0  0  0  0  0  0  0  0
   23.5290   13.5010    3.1810 S   0  0  0  0  0  6  0  0  0  0  0  0
   23.6440   12.9380    1.8470 O   0  0  0  0  0  0  0  0  0  0  0  0
   22.2160   13.7720    3.7440 O   0  0  0  0  0  0  0  0  0  0  0  0
   24.3830   14.8800    3.2780 O   0  0  0  0  0  0  0  0  0  0  0  0
   25.3050   15.0480    4.2790 C   0  0  0  0  0  0  0  0  0  0  0  0
   24.8160   15.2730    5.5560 C   0  0  0  0  0  0  0  0  0  0  0  0
   25.7210   15.4100    6.6150 C   0  0  0  0  0  0  0  0  0  0  0  0
   25.2540   15.6600    7.9880 C   0  0  0  0  0  0  0  0  0  0  0  0
   24.1120   14.9860    8.4930 C   0  0  0  0  0  0  0  0  0  0  0  0
   23.6460   15.2090    9.7930 C   0  0  0  0  0  0  0  0  0  0  0  0
   24.3450   16.1100   10.5700 C   0  0  0  0  0  0  0  0  0  0  0  0
   25.4680   16.7880   10.1070 C   0  0  0  0  0  0  0  0  0  0  0  0
   25.9320   16.5750    8.8200 C   0  0  0  0  0  0  0  0  0  0  0  0
   25.9810   17.7030   11.1680 C   0  0  0  0  0  0  0  0  0  0  0  0
   25.1180   17.3970   12.3010 N   0  0  0  0  0  0  0  0  0  0  0  0
   25.1210   18.2270   13.5010 C   0  0  2  0  0  0  0  0  0  0  0  0
   25.6960   19.6260   13.2830 C   0  0  0  0  0  0  0  0  0  0  0  0
   25.5940   20.4210   14.5750 C   0  0  0  0  0  0  0  0  0  0  0  0
   26.2950   19.7120   15.7100 C   0  0  0  0  0  0  0  0  0  0  0  0
   26.7050   20.3100   16.7010 O   0  0  0  0  0  0  0  0  0  0  0  0
   26.3800   18.3450   15.6260 N   0  0  0  0  0  0  0  0  0  0  0  0
   25.8440   17.5230   14.6610 C   0  0  0  0  0  0  0  0  0  0  0  0
   25.8660   16.3010   14.8040 O   0  0  0  0  0  0  0  0  0  0  0  0
   24.0860   16.5380   11.9490 C   0  0  0  0  0  0  0  0  0  0  0  0
   23.1270   16.1950   12.6100 O   0  0  0  0  0  0  0  0  0  0  0  0
   27.0860   15.2970    6.3250 C   0  0  0  0  0  0  0  0  0  0  0  0
   27.4760   15.0600    5.0160 C   0  0  0  0  0  0  0  0  0  0  0  0
   26.6110   14.9290    3.9900 N   0  0  0  0  0  0  0  0  0  0  0  0
   24.5270   11.0910    3.9000 C   0  0  0  0  0  0  0  0  0  0  0  0
   25.0040   10.4490    4.9470 N   0  0  0  0  0  0  0  0  0  0  0  0
   24.8497    9.5640    8.8806 H   0  0  0  0  0  0  0  0  0  0  0  0
   23.8507    9.4948    7.3893 H   0  0  0  0  0  0  0  0  0  0  0  0
   25.5127    8.8135    7.3893 H   0  0  0  0  0  0  0  0  0  0  0  0
   25.0948   11.7298    8.0679 H   0  0  0  0  0  0  0  0  0  0  0  0
   26.5208   10.8865    7.3211 H   0  0  0  0  0  0  0  0  0  0  0  0
   24.2902   13.4778    6.1498 H   0  0  0  0  0  0  0  0  0  0  0  0
   23.7329   15.3429    5.7347 H   0  0  0  0  0  0  0  0  0  0  0  0
   23.5807   14.2714    7.8471 H   0  0  0  0  0  0  0  0  0  0  0  0
   22.7584   14.6873   10.1801 H   0  0  0  0  0  0  0  0  0  0  0  0
   26.8180   17.1125    8.4512 H   0  0  0  0  0  0  0  0  0  0  0  0
   27.0340   17.4876   11.4021 H   0  0  0  0  0  0  0  0  0  0  0  0
   25.9591   18.7636   10.8771 H   0  0  0  0  0  0  0  0  0  0  0  0
   24.0623   18.3665   13.7651 H   0  0  0  0  0  0  0  0  0  0  0  0
   26.7514   19.5464   12.9835 H   0  0  0  0  0  0  0  0  0  0  0  0
   25.1286   20.1372   12.4913 H   0  0  0  0  0  0  0  0  0  0  0  0
   26.0581   21.4072   14.4269 H   0  0  0  0  0  0  0  0  0  0  0  0
   24.5305   20.5277   14.8351 H   0  0  0  0  0  0  0  0  0  0  0  0
   26.9090   17.8775   16.3760 H   0  0  0  0  0  0  0  0  0  0  0  0
   27.8369   15.3947    7.1229 H   0  0  0  0  0  0  0  0  0  0  0  0
   28.5516   14.9740    4.8023 H   0  0  0  0  0  0  0  0  0  0  0  0
   24.4252   10.6598    2.8932 H   0  0  0  0  0  0  0  0  0  0  0  0
  1  2  1  0
  2  3  1  0
  3  4  2  0
  4  5  1  0
  5  6  1  0
  6  7  2  0
  6  8  2  0
  6  9  1  0
  9 10  1  0
 10 11  2  0
 11 12  1  0
 12 13  1  0
 13 14  2  0
 14 15  1  0
 15 16  2  0
 16 17  1  0
 17 18  2  0
 17 19  1  0
 19 20  1  0
 20 21  1  0
 21 22  1  0
 22 23  1  0
 23 24  1  0
 24 25  2  0
 24 26  1  0
 26 27  1  0
 27 28  2  0
 20 29  1  0
 29 30  2  0
 12 31  2  0
 31 32  1  0
 32 33  2  0
  5 34  1  0
 34 35  2  0
 35  3  1  0
 33 10  1  0
 18 13  1  0
 27 21  1  0
 29 16  1  0
  1 36  1  0
  1 37  1  0
  1 38  1  0
  2 39  1  0
  2 40  1  0
  4 41  1  0
 11 42  1  0
 14 43  1  0
 15 44  1  0
 18 45  1  0
 19 46  1  0
 19 47  1  0
 21 48  1  1
 22 49  1  0
 22 50  1  0
 23 51  1  0
 23 52  1  0
 26 53  1  0
 31 54  1  0
 32 55  1  0
 34 56  1  0
M  END
>  <meeko>  (981) 
{"is_sidechain": [true], "free_energy": -11.02, "intermolecular_energy": 0.0, "internal_energy": -11.02, "cluster_size": 7, "cluster_id": 2, "rank_in_cluster": 1}

>  <_RMSD_MCS_to_ref>  (981) 
1.8756975035969954

$$$$
ligand
     RDKit          3D

 51 54  0  0  0  0  0  0  0  0999 V2000
   24.8710    9.6160    7.7820 C   0  0  0  0  0  0  0  0  0  0  0  0
   25.4240   10.9650    7.3490 C   0  0  0  0  0  0  0  0  0  0  0  0
   26.5360   11.4250    8.2240 C   0  0  0  0  0  0  0  0  0  0  0  0
   27.4540   12.4330    8.0080 C   0  0  0  0  0  0  0  0  0  0  0  0
   28.2580   12.3960    9.1110 N   0  0  0  0  0  0  0  0  0  0  0  0
   29.4200   13.5470    9.5210 S   0  0  0  0  0  6  0  0  0  0  0  0
   30.5000   13.3360    8.5740 O   0  0  0  0  0  0  0  0  0  0  0  0
   29.6200   13.3790   10.9490 O   0  0  0  0  0  0  0  0  0  0  0  0
   28.7340   14.9980    9.2430 O   0  0  0  0  0  0  0  0  0  0  0  0
   27.4780   15.3220    9.6850 C   0  0  0  0  0  0  0  0  0  0  0  0
   27.4390   16.2210   10.7460 C   0  0  0  0  0  0  0  0  0  0  0  0
   26.2130   16.6420   11.2970 C   0  0  0  0  0  0  0  0  0  0  0  0
   26.2990   17.6080   12.4390 C   0  0  0  0  0  0  0  0  0  0  0  0
   27.2530   18.3770   12.5250 O   0  0  0  0  0  0  0  0  0  0  0  0
   25.2870   17.6000   13.3660 N   0  0  0  0  0  0  0  0  0  0  0  0
   25.3280   18.3980   14.5780 C   0  0  1  0  0  0  0  0  0  0  0  0
   26.3420   17.8540   15.5810 C   0  0  0  0  0  0  0  0  0  0  0  0
   26.3460   18.7270   16.8260 C   0  0  0  0  0  0  0  0  0  0  0  0
   26.6220   20.1710   16.4800 C   0  0  0  0  0  0  0  0  0  0  0  0
   27.2390   20.9230   17.2300 O   0  0  0  0  0  0  0  0  0  0  0  0
   26.1190   20.6240   15.2870 N   0  0  0  0  0  0  0  0  0  0  0  0
   25.6980   19.8470   14.2340 C   0  0  0  0  0  0  0  0  0  0  0  0
   25.6140   20.3210   13.1020 O   0  0  0  0  0  0  0  0  0  0  0  0
   24.9920   16.1640   10.7930 C   0  0  0  0  0  0  0  0  0  0  0  0
   23.7930   16.5430   11.3030 N   0  0  0  0  0  0  0  0  0  0  0  0
   22.6550   16.0360   10.7780 C   0  0  0  0  0  0  0  0  0  0  0  0
   22.6320   15.1440    9.7300 C   0  0  0  0  0  0  0  0  0  0  0  0
   23.8500   14.7480    9.1920 C   0  0  0  0  0  0  0  0  0  0  0  0
   25.0510   15.2490    9.7150 C   0  0  0  0  0  0  0  0  0  0  0  0
   26.2820   14.8390    9.1710 C   0  0  0  0  0  0  0  0  0  0  0  0
   27.7840   11.4650    9.9760 C   0  0  0  0  0  0  0  0  0  0  0  0
   26.7510   10.8350    9.4550 N   0  0  0  0  0  0  0  0  0  0  0  0
   24.8497    9.5640    8.8806 H   0  0  0  0  0  0  0  0  0  0  0  0
   23.8507    9.4948    7.3893 H   0  0  0  0  0  0  0  0  0  0  0  0
   25.5127    8.8135    7.3893 H   0  0  0  0  0  0  0  0  0  0  0  0
   25.7970   10.8802    6.3176 H   0  0  0  0  0  0  0  0  0  0  0  0
   24.6106   11.7020    7.4219 H   0  0  0  0  0  0  0  0  0  0  0  0
   27.5222   13.1111    7.1446 H   0  0  0  0  0  0  0  0  0  0  0  0
   28.3807   16.6093   11.1613 H   0  0  0  0  0  0  0  0  0  0  0  0
   24.4649   17.0035   13.1948 H   0  0  0  0  0  0  0  0  0  0  0  0
   24.3288   18.3545   15.0359 H   0  0  0  0  0  0  0  0  0  0  0  0
   26.0686   16.8247   15.8564 H   0  0  0  0  0  0  0  0  0  0  0  0
   27.3441   17.8597   15.1273 H   0  0  0  0  0  0  0  0  0  0  0  0
   25.3639   18.6570   17.3164 H   0  0  0  0  0  0  0  0  0  0  0  0
   27.1413   18.3718   17.4978 H   0  0  0  0  0  0  0  0  0  0  0  0
   26.0501   21.6449   15.1687 H   0  0  0  0  0  0  0  0  0  0  0  0
   21.6954   16.3536   11.2119 H   0  0  0  0  0  0  0  0  0  0  0  0
   21.6819   14.7580    9.3322 H   0  0  0  0  0  0  0  0  0  0  0  0
   23.8726   14.0382    8.3519 H   0  0  0  0  0  0  0  0  0  0  0  0
   26.2971   14.1293    8.3307 H   0  0  0  0  0  0  0  0  0  0  0  0
   28.2034   11.2641   10.9729 H   0  0  0  0  0  0  0  0  0  0  0  0
  1  2  1  0
  2  3  1  0
  3  4  2  0
  4  5  1  0
  5  6  1  0
  6  7  2  0
  6  8  2  0
  6  9  1  0
  9 10  1  0
 10 11  2  0
 11 12  1  0
 12 13  1  0
 13 14  2  0
 13 15  1  0
 15 16  1  0
 16 17  1  0
 17 18  1  0
 18 19  1  0
 19 20  2  0
 19 21  1  0
 21 22  1  0
 22 23  2  0
 12 24  2  0
 24 25  1  0
 25 26  2  0
 26 27  1  0
 27 28  2  0
 28 29  1  0
 29 30  2  0
  5 31  1  0
 31 32  2  0
 32  3  1  0
 30 10  1  0
 22 16  1  0
 29 24  1  0
  1 33  1  0
  1 34  1  0
  1 35  1  0
  2 36  1  0
  2 37  1  0
  4 38  1  0
 11 39  1  0
 15 40  1  0
 16 41  1  1
 17 42  1  0
 17 43  1  0
 18 44  1  0
 18 45  1  0
 21 46  1  0
 26 47  1  0
 27 48  1  0
 28 49  1  0
 30 50  1  0
 31 51  1  0
M  END
>  <meeko>  (982) 
{"is_sidechain": [true], "free_energy": -11.02, "intermolecular_energy": 0.0, "internal_energy": -11.02, "cluster_size": 6, "cluster_id": 1, "rank_in_cluster": 1}

>  <_RMSD_MCS_to_ref>  (982) 
0.6531219896262359

$$$$
ligand
     RDKit          3D

 58 62  0  0  0  0  0  0  0  0999 V2000
   24.8540    9.4020    7.6050 C   0  0  0  0  0  0  0  0  0  0  0  0
   25.5230   10.7550    7.4270 C   0  0  0  0  0  0  0  0  0  0  0  0
   27.0040   10.6420    7.3260 C   0  0  0  0  0  0  0  0  0  0  0  0
   27.8860   11.4100    6.5890 C   0  0  0  0  0  0  0  0  0  0  0  0
   29.1080   10.8560    6.8510 N   0  0  0  0  0  0  0  0  0  0  0  0
   30.5940   11.5230    6.4110 S   0  0  0  0  0  6  0  0  0  0  0  0
   31.3160   11.5320    7.6760 O   0  0  0  0  0  0  0  0  0  0  0  0
   31.1030   10.7140    5.3180 O   0  0  0  0  0  0  0  0  0  0  0  0
   30.3470   13.1960    5.8570 C   0  0  0  0  0  0  0  0  0  0  0  0
   30.9030   13.4790    4.6590 C   0  0  0  0  0  0  0  0  0  0  0  0
   30.7250   14.7630    4.0410 C   0  0  0  0  0  0  0  0  0  0  0  0
   29.9550   15.6850    4.6180 C   0  0  0  0  0  0  0  0  0  0  0  0
   29.3000   15.3910    5.9190 C   0  0  0  0  0  0  0  0  0  0  0  0
   28.5350   16.3130    6.4150 N   0  0  0  0  0  0  0  0  0  0  0  0
   27.8860   16.0780    7.5960 C   0  0  0  0  0  0  0  0  0  0  0  0
   27.0400   17.0620    8.0770 N   0  0  0  0  0  0  0  0  0  0  0  0
   26.7160   17.3590    9.4200 C   0  0  0  0  0  0  0  0  0  0  0  0
   25.6370   16.6790   10.0000 C   0  0  0  0  0  0  0  0  0  0  0  0
   25.2440   16.9300   11.3190 C   0  0  0  0  0  0  0  0  0  0  0  0
   25.9280   17.8720   12.0990 C   0  0  0  0  0  0  0  0  0  0  0  0
   25.5080   18.1850   13.5240 C   0  0  1  0  0  0  0  0  0  0  0  0
   26.2990   17.3190   14.5120 C   0  0  0  0  0  0  0  0  0  0  0  0
   25.8330   17.5980   15.9310 C   0  0  0  0  0  0  0  0  0  0  0  0
   25.9670   19.0610   16.2680 C   0  0  0  0  0  0  0  0  0  0  0  0
   26.0940   19.4610   17.4220 O   0  0  0  0  0  0  0  0  0  0  0  0
   25.8730   19.9410   15.2200 N   0  0  0  0  0  0  0  0  0  0  0  0
   25.6370   19.6640   13.8920 C   0  0  0  0  0  0  0  0  0  0  0  0
   25.4860   20.5870   13.0970 O   0  0  0  0  0  0  0  0  0  0  0  0
   27.0050   18.5560   11.5200 C   0  0  0  0  0  0  0  0  0  0  0  0
   27.3910   18.3020   10.1990 C   0  0  0  0  0  0  0  0  0  0  0  0
   28.1360   14.9680    8.3020 C   0  0  0  0  0  0  0  0  0  0  0  0
   29.0700   13.9620    7.7860 C   0  0  0  0  0  0  0  0  0  0  0  0
   29.3960   13.0490    8.5390 O   0  0  0  0  0  0  0  0  0  0  0  0
   29.5570   14.1640    6.5110 N   0  0  0  0  0  0  0  0  0  0  0  0
   28.9590    9.8660    7.7690 C   0  0  0  0  0  0  0  0  0  0  0  0
   27.6850    9.6900    8.0570 N   0  0  0  0  0  0  0  0  0  0  0  0
   24.7464    9.1845    8.6779 H   0  0  0  0  0  0  0  0  0  0  0  0
   23.8606    9.4192    7.1330 H   0  0  0  0  0  0  0  0  0  0  0  0
   25.4708    8.6230    7.1330 H   0  0  0  0  0  0  0  0  0  0  0  0
   25.1399   11.2212    6.5073 H   0  0  0  0  0  0  0  0  0  0  0  0
   25.2908   11.3652    8.3123 H   0  0  0  0  0  0  0  0  0  0  0  0
   27.6573   12.2690    5.9410 H   0  0  0  0  0  0  0  0  0  0  0  0
   31.5030   12.7120    4.1475 H   0  0  0  0  0  0  0  0  0  0  0  0
   31.2262   14.9863    3.0876 H   0  0  0  0  0  0  0  0  0  0  0  0
   29.8048   16.6607    4.1327 H   0  0  0  0  0  0  0  0  0  0  0  0
   26.5887   17.6537    7.3648 H   0  0  0  0  0  0  0  0  0  0  0  0
   25.0880   15.9330    9.4065 H   0  0  0  0  0  0  0  0  0  0  0  0
   24.3910   16.3833   11.7474 H   0  0  0  0  0  0  0  0  0  0  0  0
   24.4364   17.9453   13.5897 H   0  0  0  0  0  0  0  0  0  0  0  0
   26.1370   16.2567   14.2770 H   0  0  0  0  0  0  0  0  0  0  0  0
   27.3692   17.5589   14.4281 H   0  0  0  0  0  0  0  0  0  0  0  0
   24.7779   17.3022   16.0274 H   0  0  0  0  0  0  0  0  0  0  0  0
   26.4612   17.0205   16.6251 H   0  0  0  0  0  0  0  0  0  0  0  0
   25.9945   20.9361   15.4567 H   0  0  0  0  0  0  0  0  0  0  0  0
   27.5546   19.3028   12.1118 H   0  0  0  0  0  0  0  0  0  0  0  0
   28.2392   18.8535    9.7673 H   0  0  0  0  0  0  0  0  0  0  0  0
   27.6398   14.8104    9.2710 H   0  0  0  0  0  0  0  0  0  0  0  0
   29.7864    9.2912    8.2106 H   0  0  0  0  0  0  0  0  0  0  0  0
  1  2  1  0
  2  3  1  0
  3  4  2  0
  4  5  1  0
  5  6  1  0
  6  7  2  0
  6  8  2  0
  6  9  1  0
  9 10  2  0
 10 11  1  0
 11 12  2  0
 12 13  1  0
 13 14  2  0
 14 15  1  0
 15 16  1  0
 16 17  1  0
 17 18  2  0
 18 19  1  0
 19 20  2  0
 20 21  1  0
 21 22  1  0
 22 23  1  0
 23 24  1  0
 24 25  2  0
 24 26  1  0
 26 27  1  0
 27 28  2  0
 20 29  1  0
 29 30  2  0
 15 31  2  0
 31 32  1  0
 32 33  2  0
 32 34  1  0
  5 35  1  0
 35 36  2  0
 36  3  1  0
 34  9  1  0
 34 13  1  0
 30 17  1  0
 27 21  1  0
  1 37  1  0
  1 38  1  0
  1 39  1  0
  2 40  1  0
  2 41  1  0
  4 42  1  0
 10 43  1  0
 11 44  1  0
 12 45  1  0
 16 46  1  0
 18 47  1  0
 19 48  1  0
 21 49  1  6
 22 50  1  0
 22 51  1  0
 23 52  1  0
 23 53  1  0
 26 54  1  0
 29 55  1  0
 30 56  1  0
 31 57  1  0
 35 58  1  0
M  END
>  <meeko>  (983) 
{"is_sidechain": [true], "free_energy": -11.01, "intermolecular_energy": 0.0, "internal_energy": -11.01, "cluster_size": 20, "cluster_id": 1, "rank_in_cluster": 1}

>  <_RMSD_MCS_to_ref>  (983) 
1.2500252497449802

$$$$
ligand
     RDKit          3D

 55 59  0  0  0  0  0  0  0  0999 V2000
   24.8540    9.4020    7.6050 C   0  0  0  0  0  0  0  0  0  0  0  0
   25.5230   10.7550    7.4270 C   0  0  0  0  0  0  0  0  0  0  0  0
   25.0610   11.4520    6.1960 C   0  0  0  0  0  0  0  0  0  0  0  0
   25.4790   12.6610    5.6750 C   0  0  0  0  0  0  0  0  0  0  0  0
   24.7200   12.8250    4.5520 N   0  0  0  0  0  0  0  0  0  0  0  0
   24.5800   14.2410    3.6550 S   0  0  0  0  0  6  0  0  0  0  0  0
   25.5000   14.1060    2.5440 O   0  0  0  0  0  0  0  0  0  0  0  0
   23.1550   14.4380    3.4720 O   0  0  0  0  0  0  0  0  0  0  0  0
   25.2030   15.4890    4.7460 C   0  0  0  0  0  0  0  0  0  0  0  0
   26.0590   16.4770    4.2580 C   0  0  0  0  0  0  0  0  0  0  0  0
   26.5160   17.4650    5.1250 C   0  0  0  0  0  0  0  0  0  0  0  0
   26.1180   17.4650    6.4660 C   0  0  0  0  0  0  0  0  0  0  0  0
   25.2660   16.4690    6.9750 C   0  0  0  0  0  0  0  0  0  0  0  0
   24.8380   16.4760    8.3840 C   0  0  0  0  0  0  0  0  0  0  0  0
   23.7000   15.7320    8.8020 C   0  0  0  0  0  0  0  0  0  0  0  0
   23.2700   15.7210   10.1360 C   0  0  0  0  0  0  0  0  0  0  0  0
   23.9960   16.4700   11.0370 C   0  0  0  0  0  0  0  0  0  0  0  0
   25.1020   17.2010   10.6510 C   0  0  0  0  0  0  0  0  0  0  0  0
   25.5490   17.2220    9.3430 C   0  0  0  0  0  0  0  0  0  0  0  0
   25.6300   17.8630   11.8400 C   0  0  0  0  0  0  0  0  0  0  0  0
   26.6160   18.5750   11.8470 O   0  0  0  0  0  0  0  0  0  0  0  0
   24.8000   17.5300   12.8770 N   0  0  0  0  0  0  0  0  0  0  0  0
   25.0900   17.8810   14.2590 C   0  0  1  0  0  0  0  0  0  0  0  0
   26.2940   17.1550   14.8530 C   0  0  0  0  0  0  0  0  0  0  0  0
   26.4680   17.5790   16.3040 C   0  0  0  0  0  0  0  0  0  0  0  0
   26.6080   19.0790   16.4250 C   0  0  0  0  0  0  0  0  0  0  0  0
   27.2310   19.6070   17.3410 O   0  0  0  0  0  0  0  0  0  0  0  0
   25.9520   19.8360   15.4860 N   0  0  0  0  0  0  0  0  0  0  0  0
   25.2830   19.3970   14.3650 C   0  0  0  0  0  0  0  0  0  0  0  0
   24.8310   20.2030   13.5530 O   0  0  0  0  0  0  0  0  0  0  0  0
   23.8230   16.6610   12.4760 C   0  0  0  0  0  0  0  0  0  0  0  0
   22.9660   16.1070   13.1370 O   0  0  0  0  0  0  0  0  0  0  0  0
   24.8210   15.4710    6.0940 C   0  0  0  0  0  0  0  0  0  0  0  0
   23.8720   11.7710    4.4310 C   0  0  0  0  0  0  0  0  0  0  0  0
   24.0610   10.9110    5.4120 N   0  0  0  0  0  0  0  0  0  0  0  0
   24.7464    9.1845    8.6779 H   0  0  0  0  0  0  0  0  0  0  0  0
   23.8606    9.4192    7.1330 H   0  0  0  0  0  0  0  0  0  0  0  0
   25.4708    8.6230    7.1330 H   0  0  0  0  0  0  0  0  0  0  0  0
   25.2892   11.3834    8.2990 H   0  0  0  0  0  0  0  0  0  0  0  0
   26.6061   10.5870    7.3340 H   0  0  0  0  0  0  0  0  0  0  0  0
   26.2486   13.3380    6.0742 H   0  0  0  0  0  0  0  0  0  0  0  0
   26.3684   16.4750    3.2024 H   0  0  0  0  0  0  0  0  0  0  0  0
   27.1928   18.2489    4.7544 H   0  0  0  0  0  0  0  0  0  0  0  0
   26.4786   18.2598    7.1355 H   0  0  0  0  0  0  0  0  0  0  0  0
   23.1408   15.1480    8.0562 H   0  0  0  0  0  0  0  0  0  0  0  0
   22.3908   15.1395   10.4504 H   0  0  0  0  0  0  0  0  0  0  0  0
   26.4368   17.8062    9.0591 H   0  0  0  0  0  0  0  0  0  0  0  0
   24.2249   17.5513   14.8531 H   0  0  0  0  0  0  0  0  0  0  0  0
   26.1292   16.0685   14.8044 H   0  0  0  0  0  0  0  0  0  0  0  0
   27.1987   17.4112   14.2821 H   0  0  0  0  0  0  0  0  0  0  0  0
   25.5893   17.2535   16.8802 H   0  0  0  0  0  0  0  0  0  0  0  0
   27.3843   17.1122   16.6945 H   0  0  0  0  0  0  0  0  0  0  0  0
   25.9613   20.8546   15.6382 H   0  0  0  0  0  0  0  0  0  0  0  0
   24.1669   14.6681    6.4649 H   0  0  0  0  0  0  0  0  0  0  0  0
   23.1310   11.6517    3.6268 H   0  0  0  0  0  0  0  0  0  0  0  0
  1  2  1  0
  2  3  1  0
  3  4  2  0
  4  5  1  0
  5  6  1  0
  6  7  2  0
  6  8  2  0
  6  9  1  0
  9 10  2  0
 10 11  1  0
 11 12  2  0
 12 13  1  0
 13 14  1  0
 14 15  2  0
 15 16  1  0
 16 17  2  0
 17 18  1  0
 18 19  2  0
 18 20  1  0
 20 21  2  0
 20 22  1  0
 22 23  1  0
 23 24  1  0
 24 25  1  0
 25 26  1  0
 26 27  2  0
 26 28  1  0
 28 29  1  0
 29 30  2  0
 22 31  1  0
 31 32  2  0
 13 33  2  0
  5 34  1  0
 34 35  2  0
 35  3  1  0
 33  9  1  0
 19 14  1  0
 29 23  1  0
 31 17  1  0
  1 36  1  0
  1 37  1  0
  1 38  1  0
  2 39  1  0
  2 40  1  0
  4 41  1  0
 10 42  1  0
 11 43  1  0
 12 44  1  0
 15 45  1  0
 16 46  1  0
 19 47  1  0
 23 48  1  1
 24 49  1  0
 24 50  1  0
 25 51  1  0
 25 52  1  0
 28 53  1  0
 33 54  1  0
 34 55  1  0
M  END
>  <meeko>  (984) 
{"is_sidechain": [true], "free_energy": -11.01, "intermolecular_energy": 0.0, "internal_energy": -11.01, "cluster_size": 20, "cluster_id": 1, "rank_in_cluster": 1}

>  <_RMSD_MCS_to_ref>  (984) 
0.7979236944860216

$$$$
ligand
     RDKit          3D

 60 65  0  0  0  0  0  0  0  0999 V2000
   24.8710    9.6170    7.7820 C   0  0  0  0  0  0  0  0  0  0  0  0
   25.4240   10.9640    7.3490 C   0  0  0  0  0  0  0  0  0  0  0  0
   26.5680   11.4020    8.1960 C   0  0  0  0  0  0  0  0  0  0  0  0
   27.5980   12.2680    7.8820 C   0  0  0  0  0  0  0  0  0  0  0  0
   28.3240   12.3470    9.0330 N   0  0  0  0  0  0  0  0  0  0  0  0
   29.7320   13.2440    9.2570 S   0  0  0  0  0  6  0  0  0  0  0  0
   29.8800   13.3300   10.6990 O   0  0  0  0  0  0  0  0  0  0  0  0
   30.7130   12.5630    8.4340 O   0  0  0  0  0  0  0  0  0  0  0  0
   29.4490   14.7230    8.6100 O   0  0  0  0  0  0  0  0  0  0  0  0
   28.8720   14.7910    7.3560 C   0  0  0  0  0  0  0  0  0  0  0  0
   29.6840   14.4040    6.2650 C   0  0  0  0  0  0  0  0  0  0  0  0
   29.0180   14.4850    5.0340 C   0  0  0  0  0  0  0  0  0  0  0  0
   29.4580   14.2070    3.7960 N   0  0  0  0  0  0  0  0  0  0  0  0
   28.4090   14.4620    2.9900 N   0  0  0  0  0  0  0  0  0  0  0  0
   27.2870   14.8890    3.6430 C   0  0  0  0  0  0  0  0  0  0  0  0
   27.6460   14.9170    4.9610 C   0  0  0  0  0  0  0  0  0  0  0  0
   26.8190   15.2880    6.0140 C   0  0  0  0  0  0  0  0  0  0  0  0
   27.4870   15.2030    7.2630 C   0  0  0  0  0  0  0  0  0  0  0  0
   26.7390   15.5460    8.4830 C   0  0  0  0  0  0  0  0  0  0  0  0
   25.5480   14.8490    8.8030 C   0  0  0  0  0  0  0  0  0  0  0  0
   24.8460   15.1170    9.9810 C   0  0  0  0  0  0  0  0  0  0  0  0
   25.3650   16.0810   10.8210 C   0  0  0  0  0  0  0  0  0  0  0  0
   26.5260   16.7910   10.5270 C   0  0  0  0  0  0  0  0  0  0  0  0
   27.2200   16.5420    9.3550 C   0  0  0  0  0  0  0  0  0  0  0  0
   26.8240   17.7530   11.6280 C   0  0  0  0  0  0  0  0  0  0  0  0
   25.7900   17.4490   12.6060 N   0  0  0  0  0  0  0  0  0  0  0  0
   25.6030   18.2750   13.7920 C   0  0  2  0  0  0  0  0  0  0  0  0
   26.3090   19.6270   13.7180 C   0  0  0  0  0  0  0  0  0  0  0  0
   26.0120   20.4200   14.9810 C   0  0  0  0  0  0  0  0  0  0  0  0
   26.4210   19.6550   16.2180 C   0  0  0  0  0  0  0  0  0  0  0  0
   26.6790   20.2170   17.2790 O   0  0  0  0  0  0  0  0  0  0  0  0
   26.4120   18.2870   16.1270 N   0  0  0  0  0  0  0  0  0  0  0  0
   26.0200   17.5120   15.0590 C   0  0  0  0  0  0  0  0  0  0  0  0
   25.9210   16.2910   15.1820 O   0  0  0  0  0  0  0  0  0  0  0  0
   24.8700   16.5320   12.1260 C   0  0  0  0  0  0  0  0  0  0  0  0
   23.8410   16.1460   12.6420 O   0  0  0  0  0  0  0  0  0  0  0  0
   27.8060   11.4940    9.9520 C   0  0  0  0  0  0  0  0  0  0  0  0
   26.7080   10.9320    9.4890 N   0  0  0  0  0  0  0  0  0  0  0  0
   24.8498    9.5653    8.8806 H   0  0  0  0  0  0  0  0  0  0  0  0
   23.8505    9.4962    7.3895 H   0  0  0  0  0  0  0  0  0  0  0  0
   25.5122    8.8140    7.3895 H   0  0  0  0  0  0  0  0  0  0  0  0
   25.7645   10.8882    6.3058 H   0  0  0  0  0  0  0  0  0  0  0  0
   24.6211   11.7083    7.4555 H   0  0  0  0  0  0  0  0  0  0  0  0
   27.7880   12.7759    6.9250 H   0  0  0  0  0  0  0  0  0  0  0  0
   30.7280   14.0742    6.3710 H   0  0  0  0  0  0  0  0  0  0  0  0
   28.4493   14.3450    1.9675 H   0  0  0  0  0  0  0  0  0  0  0  0
   26.3126   15.1515    3.2053 H   0  0  0  0  0  0  0  0  0  0  0  0
   25.7736   15.6086    5.8940 H   0  0  0  0  0  0  0  0  0  0  0  0
   25.1687   14.0825    8.1112 H   0  0  0  0  0  0  0  0  0  0  0  0
   23.9176   14.5815   10.2287 H   0  0  0  0  0  0  0  0  0  0  0  0
   28.1290   17.1108    9.1098 H   0  0  0  0  0  0  0  0  0  0  0  0
   27.8273   17.5807   12.0447 H   0  0  0  0  0  0  0  0  0  0  0  0
   26.8220   18.8037   11.3025 H   0  0  0  0  0  0  0  0  0  0  0  0
   24.5267   18.4972   13.8391 H   0  0  0  0  0  0  0  0  0  0  0  0
   27.3942   19.4703   13.6294 H   0  0  0  0  0  0  0  0  0  0  0  0
   25.9476   20.1834   12.8406 H   0  0  0  0  0  0  0  0  0  0  0  0
   26.5667   21.3693   14.9469 H   0  0  0  0  0  0  0  0  0  0  0  0
   24.9286   20.6041   15.0288 H   0  0  0  0  0  0  0  0  0  0  0  0
   26.7386   17.7766   16.9599 H   0  0  0  0  0  0  0  0  0  0  0  0
   28.2411   11.2992   10.9433 H   0  0  0  0  0  0  0  0  0  0  0  0
  1  2  1  0
  2  3  1  0
  3  4  2  0
  4  5  1  0
  5  6  1  0
  6  7  2  0
  6  8  2  0
  6  9  1  0
  9 10  1  0
 10 11  2  0
 11 12  1  0
 12 13  2  0
 13 14  1  0
 14 15  1  0
 15 16  2  0
 16 17  1  0
 17 18  2  0
 18 19  1  0
 19 20  2  0
 20 21  1  0
 21 22  2  0
 22 23  1  0
 23 24  2  0
 23 25  1  0
 25 26  1  0
 26 27  1  0
 27 28  1  0
 28 29  1  0
 29 30  1  0
 30 31  2  0
 30 32  1  0
 32 33  1  0
 33 34  2  0
 26 35  1  0
 35 36  2  0
  5 37  1  0
 37 38  2  0
 38  3  1  0
 18 10  1  0
 24 19  1  0
 33 27  1  0
 16 12  1  0
 35 22  1  0
  1 39  1  0
  1 40  1  0
  1 41  1  0
  2 42  1  0
  2 43  1  0
  4 44  1  0
 11 45  1  0
 14 46  1  0
 15 47  1  0
 17 48  1  0
 20 49  1  0
 21 50  1  0
 24 51  1  0
 25 52  1  0
 25 53  1  0
 27 54  1  1
 28 55  1  0
 28 56  1  0
 29 57  1  0
 29 58  1  0
 32 59  1  0
 37 60  1  0
M  END
>  <meeko>  (985) 
{"is_sidechain": [true], "free_energy": -11.01, "intermolecular_energy": 0.0, "internal_energy": -11.01, "cluster_size": 7, "cluster_id": 1, "rank_in_cluster": 1}

>  <_RMSD_MCS_to_ref>  (985) 
1.978720852097717

$$$$
ligand
     RDKit          3D

 48 51  0  0  0  0  0  0  0  0999 V2000
   24.8710    9.6160    7.7820 C   0  0  0  0  0  0  0  0  0  0  0  0
   25.4240   10.9650    7.3490 C   0  0  0  0  0  0  0  0  0  0  0  0
   26.4830   11.4720    8.2660 C   0  0  0  0  0  0  0  0  0  0  0  0
   27.5230   12.3360    7.9860 C   0  0  0  0  0  0  0  0  0  0  0  0
   28.2030   12.4350    9.1650 N   0  0  0  0  0  0  0  0  0  0  0  0
   29.4860   13.4800    9.4940 S   0  0  0  0  0  6  0  0  0  0  0  0
   30.3930   13.3420    8.3680 O   0  0  0  0  0  0  0  0  0  0  0  0
   29.9070   13.1200   10.8350 O   0  0  0  0  0  0  0  0  0  0  0  0
   28.9410   15.0130    9.5310 O   0  0  0  0  0  0  0  0  0  0  0  0
   27.5860   15.1730    9.5470 C   0  0  0  0  0  0  0  0  0  0  0  0
   26.8410   14.9210    8.4000 C   0  0  0  0  0  0  0  0  0  0  0  0
   25.4960   15.0760    8.3270 N   0  0  0  0  0  0  0  0  0  0  0  0
   24.9930   15.5240    9.4960 C   0  0  0  0  0  0  0  0  0  0  0  0
   23.6800   15.7960    9.7540 N   0  0  0  0  0  0  0  0  0  0  0  0
   23.5500   16.2400   11.0460 C   0  0  0  0  0  0  0  0  0  0  0  0
   24.8050   16.2550   11.6450 C   0  0  0  0  0  0  0  0  0  0  0  0
   25.0710   16.6740   13.0140 C   0  0  0  0  0  0  0  0  0  0  0  0
   25.2780   15.8730   13.9200 O   0  0  0  0  0  0  0  0  0  0  0  0
   25.0760   18.0310   13.2070 N   0  0  0  0  0  0  0  0  0  0  0  0
   25.2440   18.6470   14.5110 C   0  0  1  0  0  0  0  0  0  0  0  0
   26.3160   17.9540   15.3440 C   0  0  0  0  0  0  0  0  0  0  0  0
   26.4640   18.6640   16.6790 C   0  0  0  0  0  0  0  0  0  0  0  0
   26.7700   20.1300   16.4900 C   0  0  0  0  0  0  0  0  0  0  0  0
   27.4320   20.7730   17.3010 O   0  0  0  0  0  0  0  0  0  0  0  0
   26.2210   20.7370   15.3900 N   0  0  0  0  0  0  0  0  0  0  0  0
   25.6180   20.1230   14.3190 C   0  0  0  0  0  0  0  0  0  0  0  0
   25.3620   20.7570   13.2930 O   0  0  0  0  0  0  0  0  0  0  0  0
   25.7160   15.7960   10.6550 C   0  0  0  0  0  0  0  0  0  0  0  0
   27.0670   15.6200   10.7100 N   0  0  0  0  0  0  0  0  0  0  0  0
   27.5710   11.6920   10.1090 C   0  0  0  0  0  0  0  0  0  0  0  0
   26.5180   11.0890    9.5940 N   0  0  0  0  0  0  0  0  0  0  0  0
   24.8497    9.5640    8.8806 H   0  0  0  0  0  0  0  0  0  0  0  0
   23.8507    9.4948    7.3893 H   0  0  0  0  0  0  0  0  0  0  0  0
   25.5127    8.8135    7.3893 H   0  0  0  0  0  0  0  0  0  0  0  0
   25.8508   10.8633    6.3403 H   0  0  0  0  0  0  0  0  0  0  0  0
   24.5939   11.6866    7.3680 H   0  0  0  0  0  0  0  0  0  0  0  0
   27.7513   12.8314    7.0308 H   0  0  0  0  0  0  0  0  0  0  0  0
   27.3731   14.5764    7.5010 H   0  0  0  0  0  0  0  0  0  0  0  0
   22.9067   15.6851    9.0827 H   0  0  0  0  0  0  0  0  0  0  0  0
   22.6070   16.5358   11.5290 H   0  0  0  0  0  0  0  0  0  0  0  0
   24.9547   18.6432   12.3876 H   0  0  0  0  0  0  0  0  0  0  0  0
   24.2933   18.5523   15.0562 H   0  0  0  0  0  0  0  0  0  0  0  0
   26.0254   16.9072   15.5166 H   0  0  0  0  0  0  0  0  0  0  0  0
   27.2745   17.9867   14.8052 H   0  0  0  0  0  0  0  0  0  0  0  0
   25.5255   18.5639   17.2440 H   0  0  0  0  0  0  0  0  0  0  0  0
   27.2992   18.2029   17.2265 H   0  0  0  0  0  0  0  0  0  0  0  0
   26.2655   21.7657   15.3637 H   0  0  0  0  0  0  0  0  0  0  0  0
   27.8926   11.6052   11.1573 H   0  0  0  0  0  0  0  0  0  0  0  0
  1  2  1  0
  2  3  1  0
  3  4  2  0
  4  5  1  0
  5  6  1  0
  6  7  2  0
  6  8  2  0
  6  9  1  0
  9 10  1  0
 10 11  2  0
 11 12  1  0
 12 13  2  0
 13 14  1  0
 14 15  1  0
 15 16  2  0
 16 17  1  0
 17 18  2  0
 17 19  1  0
 19 20  1  0
 20 21  1  0
 21 22  1  0
 22 23  1  0
 23 24  2  0
 23 25  1  0
 25 26  1  0
 26 27  2  0
 16 28  1  0
 28 29  2  0
  5 30  1  0
 30 31  2  0
 31  3  1  0
 29 10  1  0
 28 13  1  0
 26 20  1  0
  1 32  1  0
  1 33  1  0
  1 34  1  0
  2 35  1  0
  2 36  1  0
  4 37  1  0
 11 38  1  0
 14 39  1  0
 15 40  1  0
 19 41  1  0
 20 42  1  1
 21 43  1  0
 21 44  1  0
 22 45  1  0
 22 46  1  0
 25 47  1  0
 30 48  1  0
M  END
>  <meeko>  (986) 
{"is_sidechain": [true], "free_energy": -11.01, "intermolecular_energy": 0.0, "internal_energy": -11.01, "cluster_size": 12, "cluster_id": 1, "rank_in_cluster": 1}

>  <_RMSD_MCS_to_ref>  (986) 
0.6804730380812709

$$$$
ligand
     RDKit          3D

 52 55  0  0  0  0  0  0  0  0999 V2000
   24.8710    9.6160    7.7820 C   0  0  0  0  0  0  0  0  0  0  0  0
   25.4240   10.9650    7.3490 C   0  0  0  0  0  0  0  0  0  0  0  0
   26.4630   11.4880    8.2820 C   0  0  0  0  0  0  0  0  0  0  0  0
   27.4060   12.4760    8.0710 C   0  0  0  0  0  0  0  0  0  0  0  0
   28.0890   12.5550    9.2520 N   0  0  0  0  0  0  0  0  0  0  0  0
   29.1520   13.7850    9.6930 S   0  0  0  0  0  6  0  0  0  0  0  0
   29.8680   14.1330    8.4810 O   0  0  0  0  0  0  0  0  0  0  0  0
   29.8270   13.3190   10.8880 O   0  0  0  0  0  0  0  0  0  0  0  0
   28.0910   15.1450   10.1170 C   0  0  0  0  0  0  0  0  0  0  0  0
   28.6230   16.4400   10.1110 C   0  0  0  0  0  0  0  0  0  0  0  0
   27.8090   17.5240   10.4350 C   0  0  0  0  0  0  0  0  0  0  0  0
   26.4720   17.3120   10.7700 C   0  0  0  0  0  0  0  0  0  0  0  0
   25.9410   16.0140   10.7990 C   0  0  0  0  0  0  0  0  0  0  0  0
   24.5440   15.8380   11.1400 C   0  0  0  0  0  0  0  0  0  0  0  0
   23.5030   15.2890   10.3590 C   0  0  0  0  0  0  0  0  0  0  0  0
   22.3660   15.1610   11.0440 N   0  0  0  0  0  0  0  0  0  0  0  0
   22.6890   15.6000   12.2740 N   0  0  0  0  0  0  0  0  0  0  0  0
   23.9760   16.0590   12.3880 C   0  0  0  0  0  0  0  0  0  0  0  0
   24.4620   16.6120   13.6280 C   0  0  0  0  0  0  0  0  0  0  0  0
   24.8360   15.9210   14.5690 O   0  0  0  0  0  0  0  0  0  0  0  0
   24.4020   17.9750   13.6910 N   0  0  0  0  0  0  0  0  0  0  0  0
   24.6190   18.7490   14.9040 C   0  0  1  0  0  0  0  0  0  0  0  0
   25.5760   18.0500   15.8550 C   0  0  0  0  0  0  0  0  0  0  0  0
   25.9650   19.0010   16.9740 C   0  0  0  0  0  0  0  0  0  0  0  0
   26.6040   20.2520   16.4140 C   0  0  0  0  0  0  0  0  0  0  0  0
   27.5450   20.8110   16.9690 O   0  0  0  0  0  0  0  0  0  0  0  0
   26.0510   20.7440   15.2570 N   0  0  0  0  0  0  0  0  0  0  0  0
   25.2200   20.0680   14.4070 C   0  0  0  0  0  0  0  0  0  0  0  0
   24.9650   20.4870   13.2750 O   0  0  0  0  0  0  0  0  0  0  0  0
   26.7570   14.9200   10.4830 C   0  0  0  0  0  0  0  0  0  0  0  0
   27.5900   11.6300   10.1090 C   0  0  0  0  0  0  0  0  0  0  0  0
   26.5760   10.9820    9.5640 N   0  0  0  0  0  0  0  0  0  0  0  0
   24.8497    9.5640    8.8806 H   0  0  0  0  0  0  0  0  0  0  0  0
   23.8507    9.4948    7.3893 H   0  0  0  0  0  0  0  0  0  0  0  0
   25.5127    8.8135    7.3893 H   0  0  0  0  0  0  0  0  0  0  0  0
   25.8706   10.8577    6.3495 H   0  0  0  0  0  0  0  0  0  0  0  0
   24.5889   11.6810    7.3470 H   0  0  0  0  0  0  0  0  0  0  0  0
   27.5700   13.0663    7.1574 H   0  0  0  0  0  0  0  0  0  0  0  0
   29.6797   16.6014    9.8515 H   0  0  0  0  0  0  0  0  0  0  0  0
   28.2202   18.5442   10.4265 H   0  0  0  0  0  0  0  0  0  0  0  0
   25.8283   18.1700   11.0136 H   0  0  0  0  0  0  0  0  0  0  0  0
   23.6173   14.9995    9.3040 H   0  0  0  0  0  0  0  0  0  0  0  0
   22.0263   15.5920   13.0625 H   0  0  0  0  0  0  0  0  0  0  0  0
   24.1894   18.4883   12.8237 H   0  0  0  0  0  0  0  0  0  0  0  0
   23.6874   18.8889   15.4719 H   0  0  0  0  0  0  0  0  0  0  0  0
   25.0854   17.1629   16.2820 H   0  0  0  0  0  0  0  0  0  0  0  0
   26.4781   17.7423   15.3059 H   0  0  0  0  0  0  0  0  0  0  0  0
   25.0645   19.2785   17.5415 H   0  0  0  0  0  0  0  0  0  0  0  0
   26.6896   18.4972   17.6306 H   0  0  0  0  0  0  0  0  0  0  0  0
   26.2846   21.7151   15.0055 H   0  0  0  0  0  0  0  0  0  0  0  0
   26.3555   13.8966   10.5217 H   0  0  0  0  0  0  0  0  0  0  0  0
   27.9774   11.4443   11.1216 H   0  0  0  0  0  0  0  0  0  0  0  0
  1  2  1  0
  2  3  1  0
  3  4  2  0
  4  5  1  0
  5  6  1  0
  6  7  2  0
  6  8  2  0
  6  9  1  0
  9 10  2  0
 10 11  1  0
 11 12  2  0
 12 13  1  0
 13 14  1  0
 14 15  1  0
 15 16  2  0
 16 17  1  0
 17 18  1  0
 18 19  1  0
 19 20  2  0
 19 21  1  0
 21 22  1  0
 22 23  1  0
 23 24  1  0
 24 25  1  0
 25 26  2  0
 25 27  1  0
 27 28  1  0
 28 29  2  0
 13 30  2  0
  5 31  1  0
 31 32  2  0
 32  3  1  0
 30  9  1  0
 18 14  2  0
 28 22  1  0
  1 33  1  0
  1 34  1  0
  1 35  1  0
  2 36  1  0
  2 37  1  0
  4 38  1  0
 10 39  1  0
 11 40  1  0
 12 41  1  0
 15 42  1  0
 17 43  1  0
 21 44  1  0
 22 45  1  1
 23 46  1  0
 23 47  1  0
 24 48  1  0
 24 49  1  0
 27 50  1  0
 30 51  1  0
 31 52  1  0
M  END
>  <meeko>  (987) 
{"is_sidechain": [true], "free_energy": -11.01, "intermolecular_energy": 0.0, "internal_energy": -11.01, "cluster_size": 3, "cluster_id": 1, "rank_in_cluster": 1}

>  <_RMSD_MCS_to_ref>  (987) 
0.590972738607948

$$$$
ligand
     RDKit          3D

 50 53  0  0  0  0  0  0  0  0999 V2000
   24.8710    9.6160    7.7820 C   0  0  0  0  0  0  0  0  0  0  0  0
   25.4240   10.9650    7.3490 C   0  0  0  0  0  0  0  0  0  0  0  0
   26.6650   11.3260    8.0870 C   0  0  0  0  0  0  0  0  0  0  0  0
   27.8690   11.7850    7.5910 C   0  0  0  0  0  0  0  0  0  0  0  0
   28.6560   11.9240    8.6990 N   0  0  0  0  0  0  0  0  0  0  0  0
   30.1630   12.6780    8.7470 S   0  0  0  0  0  6  0  0  0  0  0  0
   30.6460   12.4550   10.0970 O   0  0  0  0  0  0  0  0  0  0  0  0
   30.8730   12.1610    7.5920 O   0  0  0  0  0  0  0  0  0  0  0  0
   29.8760   14.2680    8.5350 O   0  0  0  0  0  0  0  0  0  0  0  0
   28.6110   14.7970    8.5200 C   0  0  0  0  0  0  0  0  0  0  0  0
   27.7610   14.8340    7.4180 C   0  0  0  0  0  0  0  0  0  0  0  0
   26.4950   15.4070    7.5430 C   0  0  0  0  0  0  0  0  0  0  0  0
   26.0810   15.9430    8.7760 C   0  0  0  0  0  0  0  0  0  0  0  0
   24.8380   16.5280    8.9810 C   0  0  0  0  0  0  0  0  0  0  0  0
   24.4350   17.0420   10.1570 N   0  0  0  0  0  0  0  0  0  0  0  0
   25.3380   16.9540   11.1600 C   0  0  0  0  0  0  0  0  0  0  0  0
   24.9070   17.5170   12.4970 C   0  0  0  0  0  0  0  0  0  0  0  0
   23.7440   17.8070   12.7540 O   0  0  0  0  0  0  0  0  0  0  0  0
   25.9350   17.6950   13.4090 N   0  0  0  0  0  0  0  0  0  0  0  0
   25.7370   18.3810   14.6720 C   0  0  1  0  0  0  0  0  0  0  0  0
   26.6330   17.8220   15.7730 C   0  0  0  0  0  0  0  0  0  0  0  0
   26.3970   18.5960   17.0610 C   0  0  0  0  0  0  0  0  0  0  0  0
   26.6130   20.0770   16.8590 C   0  0  0  0  0  0  0  0  0  0  0  0
   27.0650   20.8040   17.7390 O   0  0  0  0  0  0  0  0  0  0  0  0
   26.2490   20.5900   15.6400 N   0  0  0  0  0  0  0  0  0  0  0  0
   26.0450   19.8710   14.4870 C   0  0  0  0  0  0  0  0  0  0  0  0
   26.0940   20.4170   13.3860 O   0  0  0  0  0  0  0  0  0  0  0  0
   26.5660   16.4100   11.0780 N   0  0  0  0  0  0  0  0  0  0  0  0
   26.9260   15.9120    9.8910 C   0  0  0  0  0  0  0  0  0  0  0  0
   28.1820   15.3370    9.7390 C   0  0  0  0  0  0  0  0  0  0  0  0
   27.9220   11.6380    9.8050 C   0  0  0  0  0  0  0  0  0  0  0  0
   26.7130   11.2440    9.4660 N   0  0  0  0  0  0  0  0  0  0  0  0
   24.8497    9.5640    8.8806 H   0  0  0  0  0  0  0  0  0  0  0  0
   23.8507    9.4948    7.3893 H   0  0  0  0  0  0  0  0  0  0  0  0
   25.5127    8.8135    7.3893 H   0  0  0  0  0  0  0  0  0  0  0  0
   25.6499   10.9266    6.2731 H   0  0  0  0  0  0  0  0  0  0  0  0
   24.6643   11.7289    7.5711 H   0  0  0  0  0  0  0  0  0  0  0  0
   28.1339   11.9915    6.5435 H   0  0  0  0  0  0  0  0  0  0  0  0
   28.0856   14.4140    6.4545 H   0  0  0  0  0  0  0  0  0  0  0  0
   25.8192   15.4397    6.6757 H   0  0  0  0  0  0  0  0  0  0  0  0
   24.1415   16.5737    8.1308 H   0  0  0  0  0  0  0  0  0  0  0  0
   26.8705   17.3282   13.1828 H   0  0  0  0  0  0  0  0  0  0  0  0
   24.6909   18.2307   14.9769 H   0  0  0  0  0  0  0  0  0  0  0  0
   26.3960   16.7601   15.9347 H   0  0  0  0  0  0  0  0  0  0  0  0
   27.6868   17.9211   15.4736 H   0  0  0  0  0  0  0  0  0  0  0  0
   25.3630   18.4272   17.3961 H   0  0  0  0  0  0  0  0  0  0  0  0
   27.1138   18.2405   17.8158 H   0  0  0  0  0  0  0  0  0  0  0  0
   26.1161   21.6098   15.5837 H   0  0  0  0  0  0  0  0  0  0  0  0
   28.8610   15.3050   10.6038 H   0  0  0  0  0  0  0  0  0  0  0  0
   28.2868   11.7236   10.8392 H   0  0  0  0  0  0  0  0  0  0  0  0
  1  2  1  0
  2  3  1  0
  3  4  2  0
  4  5  1  0
  5  6  1  0
  6  7  2  0
  6  8  2  0
  6  9  1  0
  9 10  1  0
 10 11  2  0
 11 12  1  0
 12 13  2  0
 13 14  1  0
 14 15  2  0
 15 16  1  0
 16 17  1  0
 17 18  2  0
 17 19  1  0
 19 20  1  0
 20 21  1  0
 21 22  1  0
 22 23  1  0
 23 24  2  0
 23 25  1  0
 25 26  1  0
 26 27  2  0
 16 28  2  0
 28 29  1  0
 29 30  2  0
  5 31  1  0
 31 32  2  0
 32  3  1  0
 30 10  1  0
 29 13  1  0
 26 20  1  0
  1 33  1  0
  1 34  1  0
  1 35  1  0
  2 36  1  0
  2 37  1  0
  4 38  1  0
 11 39  1  0
 12 40  1  0
 14 41  1  0
 19 42  1  0
 20 43  1  1
 21 44  1  0
 21 45  1  0
 22 46  1  0
 22 47  1  0
 25 48  1  0
 30 49  1  0
 31 50  1  0
M  END
>  <meeko>  (988) 
{"is_sidechain": [true], "free_energy": -11.01, "intermolecular_energy": 0.0, "internal_energy": -11.01, "cluster_size": 20, "cluster_id": 1, "rank_in_cluster": 1}

>  <_RMSD_MCS_to_ref>  (988) 
0.981841693508231

$$$$
